 ****** HSPICE -- L-2016.06-SP2-2 linux64 (Jan 24 2017) ******                  
  Copyright (c) 1986 - 2019 by Synopsys, Inc. All Rights Reserved.              
  This software and the associated documentation are proprietary
  to Synopsys, Inc. This software may only be used in accordance
  with the terms and conditions of a written license agreement with
  Synopsys, Inc. All other use, reproduction, or distribution of
  this software is strictly prohibited.
  Input File: Lab2b.sp                                                          
  Command line options: /Linux/sw/request/synopsys/hspice_vL-2016.06-SP2-2/hspice/linux64/hspice -i Lab2b.sp -o Lab2b
 lic:  
 lic: FLEXlm: v11.2.1 
 lic: USER:   vprabhu              HOSTNAME: lcs-vc-linux-01 
 lic: HOSTID: 005056bc7b03         PID:      19598 
 lic: Using FLEXlm license file: 
 lic: 27006@lcs-vc-license2.ad.syr.edu 
 lic: Checkout 1 hspice 
 lic: License/Maintenance for hspice will expire on 17-mar-2019/2017.12 
 lic: 1(in_use)/75(total) FLOATING license(s) on SERVER 27006@lcs-vc-license2.ad.syr.edu 
 lic:   
1****** HSPICE -- L-2016.06-SP2-2 linux64 (Jan 24 2017) ******                  
 ******  
 *this file will describe the hspice of lab 2

 ****** circuit name directory
 circuit number to circuit name directory
   number circuitname                     definition         multiplier
        0 main circuit
        1 x1.                             buf16              1.00 
        2 x2.                             buf16              1.00 
        3 x3.                             buf16              1.00 
        4 x4.                             buf16              1.00 
        5 x5.                             buf16              1.00 
        6 x6.                             buf16              1.00 
        7 x7.                             buf16              1.00 
        8 x8.                             buf16              1.00 
        9 x9.                             buf16              1.00 
       10 x10.                            buf16              1.00 
       11 x11.                            buf16              1.00 
       12 x12.                            buf16              1.00 
       13 x13.                            buf16              1.00 
       14 x14.                            buf16              1.00 
       15 x15.                            buf16              1.00 
       16 x16.                            buf16              1.00 
 ******  
 *this file will describe the hspice of lab 2

 ****** mos   model parameters tnom=  25.000 temp=  25.000 ******
 Model file: ./cmos45nm_PTM_HP
 Model line:            4
 Model Name: nmos  
 BSIM4 Model (Level 54)
    MOBMOD = 0
    BINUNIT = 1
    PARAMCHK = 1
    CAPMOD = 2
    DIOMOD = 1
    RDSMOD = 0
    TRNQSMOD = 0
    ACNQSMOD = 0
    RBODYMOD = 1
    RGATEMOD = 1
    PERMOD = 1
    GEOMOD = 1
    RGEOMOD = 0
    FNOIMOD = 1
    TNOIMOD = 0
    IGCMOD = 1
    IGBMOD = 1
    STIMOD = 0
    VERSION =      4 
    TOXREF = 1.25e-09 
    TOXE = 1.25e-09 
    TOXP =  1e-09 
    TOXM = 1.25e-09 
    DTOX = 2.5e-10 
    EPSROX =    3.9 
    CDSC =      0 
    CDSCB =      0 
    CDSCD =      0 
    CIT =      0 
    NFACTOR =   2.22 
    XJ = 1.4e-08 
    VSAT = 1.7e+05 
    A0 =      1 
    AGS =      0 
    A1 =      0 
    A2 =      1 
    AT = 3.3e+04 
    KETA =   0.04 
    NSUB =  6e+16 
    NDEP = 3.24e+18 
    NSD =  2e+20 
    NGATE =  1e+23 
    GAMMA1 =      0 
    GAMMA2 =      0 
    VBX =      0 
    VBM =     -3 
    XT = 1.55e-07 
    K1 =    0.4 
    KT1 =  -0.11 
    KT1L =      0 
    KT2 =  0.022 
    K2 =      0 
    K3 =      0 
    K3B =      0 
    LPE0 =      0 
    LPEB =      0 
    DVTP0 =  1e-10 
    DVTP1 =    0.1 
    W0 = 2.5e-06 
    DVT0 =      1 
    DVT1 =      2 
    DVT2 =      0 
    DVT0W =      0 
    DVT1W =      0 
    DVT2W =      0 
    DROUT =    0.5 
    DSUB =    0.1 
    VTH0 = 0.4689 
    EU =   1.67 
    UA =  6e-10 
    UA1 = 4.31e-09 
    UB = 1.2e-18 
    UB1 = 7.61e-18 
    UC =      0 
    UC1 = -5.6e-11 
    U0 =  0.054 
    UTE =   -1.5 
    VOFF =  -0.13 
    VOFFL =      0 
    MINV =   0.05 
    FPROUT =    0.2 
    PDITS =   0.08 
    PDITSD =   0.23 
    PDITSL = 2.3e+06 
    DELTA =   0.01 
    RDSW =    155 
    RDSWMIN =      0 
    RDWMIN =      0 
    RSWMIN =      0 
    RDW =     80 
    RSW =     80 
    PRWG =      0 
    PRWB =      0 
    PRT =      0 
    ETA0 = 0.0055 
    ETAB =      0 
    PCLM =   0.02 
    PDIBLC1 =  0.001 
    PDIBLC2 =  0.001 
    PDIBLCB = -0.005 
    PSCBE1 = 8.14e+08 
    PSCBE2 =  1e-07 
    PVAG =  1e-20 
    WR =      1 
    DWG =      0 
    DWB =      0 
    XW =      0 
    XWREF =      0 
    XL = -2e-08 
    XLREF = -2e-08 
    B0 =      0 
    B1 =      0 
    ALPHA0 =  0.074 
    ALPHA1 =  0.005 
    AGIDL = 0.0002 
    BGIDL = 2.1e+09 
    CGIDL = 0.0002 
    PHIN =      0 
    EGIDL =    0.8 
    AIGC =   0.02 
    BIGC = 0.0025 
    CIGC =  0.002 
    AIGSD =   0.02 
    BIGSD = 0.0025 
    CIGSD =  0.002 
    AIGBACC =  0.012 
    BIGBACC = 0.0028 
    CIGBACC =  0.002 
    AIGBINV =  0.014 
    BIGBINV =  0.004 
    CIGBINV =  0.004 
    NIGC =      1 
    NIGBINV =      3 
    NIGBACC =      1 
    NTOX =      1 
    EIGBINV =    1.1 
    PIGCD =      1 
    POXEDGE =      1 
    XRCRG1 =     12 
    TNOIA =    1.5 
    TNOIB =    3.5 
    NTNOI =      1 
    XRCRG2 =      5 
    BETA0 =     30 
    IJTHDFWD =   0.01 
    IJTHSFWD =   0.01 
    IJTHDREV =  0.001 
    IJTHSREV =  0.001 
    XJBVD =      1 
    XJBVS =      1 
    BVD =     10 
    BVS =     10 
    VFB =  -0.55 
    GBMIN =  1e-10 
    RBDB =     15 
    RBPB =      5 
    RBSB =     15 
    RBPS =     15 
    RBPD =     15 
    CGSL = 2.653e-10 
    CGDL = 2.653e-10 
    CKAPPAS =   0.03 
    CKAPPAD =   0.03 
    CF = 1.269e-10 
    CLC =  1e-07 
    CLE =    0.6 
    DWC =  5e-09 
    DLC = 3.75e-09 
    DLCIG = 3.75e-09 
    DWJ =      0 
    VFBCV =     -1 
    ACDE =      1 
    MOIN =     15 
    NOFF =    0.9 
    VOFFCV =   0.02 
    DMCG =      0 
    DMCI =      0 
    DMDG =      0 
    DMCGT =      0 
    XGW =      0 
    XGL =      0 
    RSHG =    0.4 
    NGCON =      1 
    TCJ =  0.001 
    TPB =  0.005 
    TCJSW =  0.001 
    TPBSW =  0.005 
    TCJSWG =  0.001 
    TPBSWG =  0.005 
    SK0 =      0 
    SK1 =      0 
    SK2 =      0 
    SL =  2e-06 
    SW =  2e-06 
    K =      0 
    TNOM =  300.1 
    CGSO = 1.1e-10 
    CGDO = 1.1e-10 
    CGBO = 2.56e-11 
    XPART =      0 
    RSH =      5 
    JSS = 0.0001 
    JSWS =  1e-11 
    JSWGS =  1e-10 
    PBS =      1 
    MJS =    0.5 
    PBSWS =      1 
    MJSWS =   0.33 
    CJS = 0.0005 
    CJSWS =  5e-10 
    NJS =      1 
    PBSWGS =      1 
    MJSWGS =   0.33 
    CJSWGS =  3e-10 
    XTIS =      3 
    JSD = 0.0001 
    JSWD =  1e-11 
    JSWGD =  1e-10 
    PBD =      1 
    MJD =    0.5 
    PBSWD =      1 
    MJSWD =   0.33 
    CJD = 0.0005 
    CJSWD =  5e-10 
    NJD =      1 
    PBSWGD =      1 
    MJSWGD =   0.33 
    CJSWGD =  5e-10 
    XTID =      3 
    LMLT =      1 
    WMLT =      1 
    LINT = 3.75e-09 
    LL =      0 
    LLC =      0 
    LLN =      1 
    LW =      0 
    LWC =      0 
    LWN =      1 
    LWL =      0 
    LWLC =      0 
    LMIN =      0 
    LMAX =      1 
    WINT =  5e-09 
    WL =      0 
    WLC =      0 
    WLN =      1 
    WW =      0 
    WWC =      0 
    WWN =      1 
    WWL =      0 
    WWLC =      0 
    WMIN =      0 
    WMAX =      1 
    NOIA = 6.25e+41 
    NOIB = 3.125e+26 
    NOIC = 8.75e+09 
    EM = 4.1e+07 
    EF =      1 
    AF =      1 
    KF =      0 
    TRS =      0 
    TRD =      0 
 Model file: ./cmos45nm_PTM_HP
 Model line:           74
 Model Name: pmos  
 BSIM4 Model (Level 54)
    MOBMOD = 0
    BINUNIT = 1
    PARAMCHK = 1
    CAPMOD = 2
    DIOMOD = 1
    RDSMOD = 0
    TRNQSMOD = 0
    ACNQSMOD = 0
    RBODYMOD = 1
    RGATEMOD = 1
    PERMOD = 1
    GEOMOD = 1
    RGEOMOD = 0
    FNOIMOD = 1
    TNOIMOD = 0
    IGCMOD = 1
    IGBMOD = 1
    STIMOD = 0
    VERSION =      4 
    TOXREF = 1.3e-09 
    TOXE = 1.3e-09 
    TOXP =  1e-09 
    TOXM = 1.3e-09 
    DTOX =  3e-10 
    EPSROX =    3.9 
    CDSC =      0 
    CDSCB =      0 
    CDSCD =      0 
    CIT =      0 
    NFACTOR =    2.1 
    XJ = 1.4e-08 
    VSAT = 1.5e+05 
    A0 =      1 
    AGS =  1e-20 
    A1 =      0 
    A2 =      1 
    AT = 3.3e+04 
    KETA = -0.047 
    NSUB =  6e+16 
    NDEP = 2.44e+18 
    NSD =  2e+20 
    NGATE =  1e+23 
    GAMMA1 =      0 
    GAMMA2 =      0 
    VBX =      0 
    VBM =     -3 
    XT = 1.55e-07 
    K1 =    0.4 
    KT1 =  -0.11 
    KT1L =      0 
    KT2 =  0.022 
    K2 =  -0.01 
    K3 =      0 
    K3B =      0 
    LPE0 =      0 
    LPEB =      0 
    DVTP0 =  1e-11 
    DVTP1 =   0.05 
    W0 = 2.5e-06 
    DVT0 =      1 
    DVT1 =      2 
    DVT2 = -0.032 
    DVT0W =      0 
    DVT1W =      0 
    DVT2W =      0 
    DROUT =   0.56 
    DSUB =    0.1 
    VTH0 = -0.4916 
    EU =      1 
    UA =  2e-09 
    UA1 = 4.31e-09 
    UB =  5e-19 
    UB1 = 7.61e-18 
    UC =      0 
    UC1 = -5.6e-11 
    U0 =   0.02 
    UTE =   -1.5 
    VOFF = -0.126 
    VOFFL =      0 
    MINV =   0.05 
    FPROUT =    0.2 
    PDITS =   0.08 
    PDITSD =   0.23 
    PDITSL = 2.3e+06 
    DELTA =   0.01 
    RDSW =    155 
    RDSWMIN =      0 
    RDWMIN =      0 
    RSWMIN =      0 
    RDW =     75 
    RSW =     75 
    PRWG =      0 
    PRWB =      0 
    PRT =      0 
    ETA0 = 0.0055 
    ETAB =      0 
    PCLM =   0.12 
    PDIBLC1 =  0.001 
    PDIBLC2 =  0.001 
    PDIBLCB = 3.4e-08 
    PSCBE1 = 8.14e+08 
    PSCBE2 = 9.58e-07 
    PVAG =  1e-20 
    WR =      1 
    DWG =      0 
    DWB =      0 
    XW =      0 
    XWREF =      0 
    XL = -2e-08 
    XLREF = -2e-08 
    B0 =      0 
    B1 =      0 
    ALPHA0 =  0.074 
    ALPHA1 =  0.005 
    AGIDL = 0.0002 
    BGIDL = 2.1e+09 
    CGIDL = 0.0002 
    PHIN =      0 
    EGIDL =    0.8 
    AIGC = 0.01069 
    BIGC = 0.001261 
    CIGC = 0.0008 
    AIGSD = 0.01069 
    BIGSD = 0.001261 
    CIGSD = 0.0008 
    AIGBACC =  0.012 
    BIGBACC = 0.0028 
    CIGBACC =  0.002 
    AIGBINV =  0.014 
    BIGBINV =  0.004 
    CIGBINV =  0.004 
    NIGC =      1 
    NIGBINV =      3 
    NIGBACC =      1 
    NTOX =      1 
    EIGBINV =    1.1 
    PIGCD =      1 
    POXEDGE =      1 
    XRCRG1 =     12 
    TNOIA =    1.5 
    TNOIB =    3.5 
    NTNOI =      1 
    XRCRG2 =      5 
    BETA0 =     30 
    IJTHDFWD =   0.01 
    IJTHSFWD =   0.01 
    IJTHDREV =  0.001 
    IJTHSREV =  0.001 
    XJBVD =      1 
    XJBVS =      1 
    BVD =     10 
    BVS =     10 
    VFB =   0.55 
    GBMIN =  1e-10 
    RBDB =     15 
    RBPB =      5 
    RBSB =     15 
    RBPS =     15 
    RBPD =     15 
    CGSL = 2.653e-10 
    CGDL = 2.653e-10 
    CKAPPAS =   0.03 
    CKAPPAD =   0.03 
    CF = 1.26e-10 
    CLC =  1e-07 
    CLE =    0.6 
    DWC =  5e-09 
    DLC = 3.75e-09 
    DLCIG = 3.75e-09 
    DWJ =      0 
    VFBCV =     -1 
    ACDE =      1 
    MOIN =     15 
    NOFF =    0.9 
    VOFFCV =   0.02 
    DMCG =      0 
    DMCI =      0 
    DMDG =      0 
    DMCGT =      0 
    XGW =      0 
    XGL =      0 
    RSHG =    0.4 
    NGCON =      1 
    TCJ =  0.001 
    TPB =  0.005 
    TCJSW =  0.001 
    TPBSW =  0.005 
    TCJSWG =  0.001 
    TPBSWG =  0.005 
    SK0 =      0 
    SK1 =      0 
    SK2 =      0 
    SL =  2e-06 
    SW =  2e-06 
    K =      0 
    TNOM =  300.1 
    CGSO = 1.1e-10 
    CGDO = 1.1e-10 
    CGBO = 2.56e-11 
    XPART =      0 
    RSH =      5 
    JSS = 0.0001 
    JSWS =  1e-11 
    JSWGS =  1e-10 
    PBS =      1 
    MJS =    0.5 
    PBSWS =      1 
    MJSWS =   0.33 
    CJS = 0.0005 
    CJSWS =  5e-10 
    NJS =      1 
    PBSWGS =      1 
    MJSWGS =   0.33 
    CJSWGS =  3e-10 
    XTIS =      3 
    JSD = 0.0001 
    JSWD =  1e-11 
    JSWGD =  1e-10 
    PBD =      1 
    MJD =    0.5 
    PBSWD =      1 
    MJSWD =   0.33 
    CJD = 0.0005 
    CJSWD =  5e-10 
    NJD =      1 
    PBSWGD =      1 
    MJSWGD =   0.33 
    CJSWGD =  5e-10 
    XTID =      3 
    LMLT =      1 
    WMLT =      1 
    LINT = 3.75e-09 
    LL =      0 
    LLC =      0 
    LLN =      1 
    LW =      0 
    LWC =      0 
    LWN =      1 
    LWL =      0 
    LWLC =      0 
    LMIN =      0 
    LMAX =      1 
    WINT =  5e-09 
    WL =      0 
    WLC =      0 
    WLN =      1 
    WW =      0 
    WWC =      0 
    WWN =      1 
    WWL =      0 
    WWLC =      0 
    WMIN =      0 
    WMAX =      1 
    NOIA = 6.188e+40 
    NOIB = 1.5e+25 
    NOIC = 8.75e+09 
    EM = 4.1e+07 
    EF =      1 
    AF =      1 
    KF =      0 
    TRS =      0 
    TRD =      0 
  **info** (Lab2b.sp:5) DC voltage reset to initial transient source value in source 0:vs. new dc=0.0000D+00
  **warning** (nmos:m0n (Lab2b.sp:10)) Warning:  Acde = 0.280299 may be too small in BSIM4 model with w=7.2e-07 l=4.5e-08.
  **warning** (Lab2b.sp:156) Unable to find referenced node vs; Output variable ignored. Specify a valid node.
  
      
 *****************************************************************
 ******  option summary
 ******
 runlvl  = 3         bypass  = 2.0000    
  Opening plot unit= 15
 file=Lab2b.pa0

 **info** dc convergence successful at Newton-Raphson method 
 ******  
 *this file will describe the hspice of lab 2

 ****** operating point information tnom=  25.000 temp=  25.000 ******
 ****** operating point status is voltage   simulation time is     0.     
     node    =voltage       node    =voltage       node    =voltage

 + 0:1       =   0.       0:2       =   0.       0:3       =   0.     
 + 0:4       =   0.       0:5       =   0.       0:6       =   0.     
 + 0:7       =   0.       0:8       =   0.       0:9       =   0.     
 + 0:10      =   0.       0:11      =   0.       0:12      =   0.     
 + 0:13      =   0.       0:14      =   0.       0:15      =   0.     
 + 0:16      =   0.       0:17      =   0.       0:18      =   0.     
 + 0:19      =   0.       0:20      =   0.       0:21      =   0.     
 + 0:22      =   0.       0:23      =   0.       0:24      =   0.     
 + 0:25      =   0.       0:26      =   0.       0:27      =   0.     
 + 0:28      =   0.       0:29      =   0.       0:30      =   0.     
 + 0:31      =   0.       0:32      =   0.       0:33      =   0.     
 + 0:34      =   0.       0:35      =   0.       0:36      =   0.     
 + 0:37      =   0.       0:38      =   0.       0:39      =   0.     
 + 0:40      =   0.       0:41      =   0.       0:42      =   0.     
 + 0:43      =   0.       0:44      =   0.       0:45      =   0.     
 + 0:46      =   0.       0:47      =   0.       0:48      =   0.     
 + 0:49      =   0.       0:50      =   0.       0:51      =   0.     
 + 0:52      =   0.       0:53      =   0.       0:54      =   0.     
 + 0:a       =   0.       0:b       =   0.       0:c       =   0.     
 + 0:d       =   0.       0:e       =   0.       0:f       =   0.     
 + 0:g       =   0.       0:h       =   0.       0:i       =   0.     
 + 0:j       =   0.       0:k       =   0.       0:l       =   0.     
 + 0:m       =   0.       0:n       =   0.       0:o       =   0.     
 + 0:p       =   0.       0:vin     =   0.       1:n1      =   0.     
 + 2:n1      =   0.       3:n1      =   0.       4:n1      =   0.     
 + 5:n1      =   0.       6:n1      =   0.       7:n1      =   0.     
 + 8:n1      =   0.       9:n1      =   0.      10:n1      =   0.     
 +11:n1      =   0.      12:n1      =   0.      13:n1      =   0.     
 +14:n1      =   0.      15:n1      =   0.      16:n1      =   0.     

 ******
 *this file will describe the hspice of lab 2

 ****** transient analysis tnom=  25.000 temp=  25.000 ******
x

 time         voltage   
             7          
    0.          0.      
   10.00000p    0.      
   20.00000p    0.      
   30.00000p    0.      
   40.00000p    0.      
   50.00000p    0.      
   60.00000p    0.      
   70.00000p    0.      
   80.00000p    0.      
   90.00000p    0.      
  100.00000p    0.      
  110.00000p    0.      
  120.00000p    0.      
  130.00000p    0.      
  140.00000p    0.      
  150.00000p    0.      
  160.00000p    0.      
  170.00000p    0.      
  180.00000p    0.      
  190.00000p    0.      
  200.00000p    0.      
  210.00000p    0.      
  220.00000p    0.      
  230.00000p    0.      
  240.00000p    0.      
  250.00000p    0.      
  260.00000p    0.      
  270.00000p    0.      
  280.00000p    0.      
  290.00000p    0.      
  300.00000p    0.      
  310.00000p    0.      
  320.00000p    0.      
  330.00000p    0.      
  340.00000p    0.      
  350.00000p    0.      
  360.00000p    0.      
  370.00000p    0.      
  380.00000p    0.      
  390.00000p    0.      
  400.00000p    0.      
  410.00000p    0.      
  420.00000p    0.      
  430.00000p    0.      
  440.00000p    0.      
  450.00000p    0.      
  460.00000p    0.      
  470.00000p    0.      
  480.00000p    0.      
  490.00000p    0.      
  500.00000p    0.      
  510.00000p    0.      
  520.00000p    0.      
  530.00000p    0.      
  540.00000p    0.      
  550.00000p    0.      
  560.00000p    0.      
  570.00000p    0.      
  580.00000p    0.      
  590.00000p    0.      
  600.00000p    0.      
  610.00000p    0.      
  620.00000p    0.      
  630.00000p    0.      
  640.00000p    0.      
  650.00000p    0.      
  660.00000p    0.      
  670.00000p    0.      
  680.00000p    0.      
  690.00000p    0.      
  700.00000p    0.      
  710.00000p    0.      
  720.00000p    0.      
  730.00000p    0.      
  740.00000p    0.      
  750.00000p    0.      
  760.00000p    0.      
  770.00000p    0.      
  780.00000p    0.      
  790.00000p    0.      
  800.00000p    0.      
  810.00000p    0.      
  820.00000p    0.      
  830.00000p    0.      
  840.00000p    0.      
  850.00000p    0.      
  860.00000p    0.      
  870.00000p    0.      
  880.00000p    0.      
  890.00000p    0.      
  900.00000p    0.      
  910.00000p    0.      
  920.00000p    0.      
  930.00000p    0.      
  940.00000p    0.      
  950.00000p    0.      
  960.00000p    0.      
  970.00000p    0.      
  980.00000p    0.      
  990.00000p    0.      
    1.00000n    0.      
    1.01000n  686.5922m 
    1.02000n    1.5282  
    1.03000n    1.7825  
    1.04000n    1.8627  
    1.05000n    1.8890  
    1.06000n    1.9002  
    1.07000n    1.9083  
    1.08000n    1.9123  
    1.09000n    1.9163  
    1.10000n    1.9188  
    1.11000n    1.9207  
    1.12000n    1.9227  
    1.13000n    1.9243  
    1.14000n    1.9253  
    1.15000n    1.9263  
    1.16000n    1.9273  
    1.17000n    1.9283  
    1.18000n    1.9290  
    1.19000n    1.9296  
    1.20000n    1.9301  
    1.21000n    1.9306  
    1.22000n    1.9311  
    1.23000n    1.9317  
    1.24000n    1.9321  
    1.25000n    1.9323  
    1.26000n    1.9325  
    1.27000n    1.9327  
    1.28000n    1.9330  
    1.29000n    1.9332  
    1.30000n    1.9334  
    1.31000n    1.9336  
    1.32000n    1.9338  
    1.33000n    1.9339  
    1.34000n    1.9339  
    1.35000n    1.9340  
    1.36000n    1.9341  
    1.37000n    1.9341  
    1.38000n    1.9342  
    1.39000n    1.9343  
    1.40000n    1.9343  
    1.41000n    1.9344  
    1.42000n    1.9345  
    1.43000n    1.9345  
    1.44000n    1.9345  
    1.45000n    1.9346  
    1.46000n    1.9346  
    1.47000n    1.9346  
    1.48000n    1.9346  
    1.49000n    1.9346  
    1.50000n    1.9346  
    1.51000n    1.9346  
    1.52000n    1.9346  
    1.53000n    1.9346  
    1.54000n    1.9346  
    1.55000n    1.9347  
    1.56000n    1.9347  
    1.57000n    1.9347  
    1.58000n    1.9347  
    1.59000n    1.9347  
    1.60000n    1.9347  
    1.61000n    1.9347  
    1.62000n    1.9347  
    1.63000n    1.9347  
    1.64000n    1.9347  
    1.65000n    1.9347  
    1.66000n    1.9347  
    1.67000n    1.9347  
    1.68000n    1.9347  
    1.69000n    1.9347  
    1.70000n    1.9347  
    1.71000n    1.9347  
    1.72000n    1.9347  
    1.73000n    1.9347  
    1.74000n    1.9347  
    1.75000n    1.9347  
    1.76000n    1.9347  
    1.77000n    1.9347  
    1.78000n    1.9347  
    1.79000n    1.9347  
    1.80000n    1.9347  
    1.81000n    1.9347  
    1.82000n    1.9347  
    1.83000n    1.9347  
    1.84000n    1.9347  
    1.85000n    1.9347  
    1.86000n    1.9347  
    1.87000n    1.9347  
    1.88000n    1.9347  
    1.89000n    1.9347  
    1.90000n    1.9347  
    1.91000n    1.9347  
    1.92000n    1.9347  
    1.93000n    1.9347  
    1.94000n    1.9347  
    1.95000n    1.9347  
    1.96000n    1.9347  
    1.97000n    1.9347  
    1.98000n    1.9347  
    1.99000n    1.9347  
    2.00000n    1.9347  
    2.01000n    1.9347  
    2.02000n    1.9347  
    2.03000n    1.9347  
    2.04000n    1.9347  
    2.05000n    1.9347  
    2.06000n    1.9347  
    2.07000n    1.9347  
    2.08000n    1.9347  
    2.09000n    1.9347  
    2.10000n    1.9347  
    2.11000n    1.9347  
    2.12000n    1.9347  
    2.13000n    1.9347  
    2.14000n    1.9347  
    2.15000n    1.9347  
    2.16000n    1.9347  
    2.17000n    1.9347  
    2.18000n    1.9347  
    2.19000n    1.9347  
    2.20000n    1.9347  
    2.21000n    1.9347  
    2.22000n    1.9347  
    2.23000n    1.9347  
    2.24000n    1.9347  
    2.25000n    1.9347  
    2.26000n    1.9347  
    2.27000n    1.9347  
    2.28000n    1.9347  
    2.29000n    1.9347  
    2.30000n    1.9347  
    2.31000n    1.9347  
    2.32000n    1.9347  
    2.33000n    1.9347  
    2.34000n    1.9347  
    2.35000n    1.9347  
    2.36000n    1.9347  
    2.37000n    1.9347  
    2.38000n    1.9347  
    2.39000n    1.9347  
    2.40000n    1.9347  
    2.41000n    1.9347  
    2.42000n    1.9347  
    2.43000n    1.9347  
    2.44000n    1.9347  
    2.45000n    1.9347  
    2.46000n    1.9347  
    2.47000n    1.9347  
    2.48000n    1.9347  
    2.49000n    1.9347  
    2.50000n    1.9347  
    2.51000n    1.9347  
    2.52000n    1.9347  
    2.53000n    1.9347  
    2.54000n    1.9347  
    2.55000n    1.9347  
    2.56000n    1.9347  
    2.57000n    1.9347  
    2.58000n    1.9347  
    2.59000n    1.9347  
    2.60000n    1.9347  
    2.61000n    1.9347  
    2.62000n    1.9347  
    2.63000n    1.9347  
    2.64000n    1.9347  
    2.65000n    1.9347  
    2.66000n    1.9347  
    2.67000n    1.9347  
    2.68000n    1.9347  
    2.69000n    1.9347  
    2.70000n    1.9347  
    2.71000n    1.9347  
    2.72000n    1.9347  
    2.73000n    1.9347  
    2.74000n    1.9347  
    2.75000n    1.9347  
    2.76000n    1.9347  
    2.77000n    1.9347  
    2.78000n    1.9347  
    2.79000n    1.9347  
    2.80000n    1.9347  
    2.81000n    1.9347  
    2.82000n    1.9347  
    2.83000n    1.9347  
    2.84000n    1.9347  
    2.85000n    1.9347  
    2.86000n    1.9347  
    2.87000n    1.9347  
    2.88000n    1.9347  
    2.89000n    1.9347  
    2.90000n    1.9347  
    2.91000n    1.9347  
    2.92000n    1.9347  
    2.93000n    1.9347  
    2.94000n    1.9347  
    2.95000n    1.9347  
    2.96000n    1.9347  
    2.97000n    1.9347  
    2.98000n    1.9347  
    2.99000n    1.9347  
    3.00000n    1.9347  
    3.01000n    1.9347  
    3.02000n    1.9347  
    3.03000n    1.9347  
    3.04000n    1.9347  
    3.05000n    1.9347  
    3.06000n    1.9347  
    3.07000n    1.9347  
    3.08000n    1.9347  
    3.09000n    1.9347  
    3.10000n    1.9347  
    3.11000n    1.9347  
    3.12000n    1.9347  
    3.13000n    1.9347  
    3.14000n    1.9347  
    3.15000n    1.9347  
    3.16000n    1.9347  
    3.17000n    1.9347  
    3.18000n    1.9347  
    3.19000n    1.9347  
    3.20000n    1.9347  
    3.21000n    1.9347  
    3.22000n    1.9347  
    3.23000n    1.9347  
    3.24000n    1.9347  
    3.25000n    1.9347  
    3.26000n    1.9347  
    3.27000n    1.9347  
    3.28000n    1.9347  
    3.29000n    1.9347  
    3.30000n    1.9347  
    3.31000n    1.9347  
    3.32000n    1.9347  
    3.33000n    1.9347  
    3.34000n    1.9347  
    3.35000n    1.9347  
    3.36000n    1.9347  
    3.37000n    1.9347  
    3.38000n    1.9347  
    3.39000n    1.9347  
    3.40000n    1.9347  
    3.41000n    1.9347  
    3.42000n    1.9347  
    3.43000n    1.9347  
    3.44000n    1.9347  
    3.45000n    1.9347  
    3.46000n    1.9347  
    3.47000n    1.9347  
    3.48000n    1.9347  
    3.49000n    1.9347  
    3.50000n    1.9347  
    3.51000n    1.9347  
    3.52000n    1.9347  
    3.53000n    1.9347  
    3.54000n    1.9347  
    3.55000n    1.9347  
    3.56000n    1.9347  
    3.57000n    1.9347  
    3.58000n    1.9347  
    3.59000n    1.9347  
    3.60000n    1.9347  
    3.61000n    1.9347  
    3.62000n    1.9347  
    3.63000n    1.9347  
    3.64000n    1.9347  
    3.65000n    1.9347  
    3.66000n    1.9347  
    3.67000n    1.9347  
    3.68000n    1.9347  
    3.69000n    1.9347  
    3.70000n    1.9347  
    3.71000n    1.9347  
    3.72000n    1.9347  
    3.73000n    1.9347  
    3.74000n    1.9347  
    3.75000n    1.9347  
    3.76000n    1.9347  
    3.77000n    1.9347  
    3.78000n    1.9347  
    3.79000n    1.9347  
    3.80000n    1.9347  
    3.81000n    1.9347  
    3.82000n    1.9347  
    3.83000n    1.9347  
    3.84000n    1.9347  
    3.85000n    1.9347  
    3.86000n    1.9347  
    3.87000n    1.9347  
    3.88000n    1.9347  
    3.89000n    1.9347  
    3.90000n    1.9347  
    3.91000n    1.9347  
    3.92000n    1.9347  
    3.93000n    1.9347  
    3.94000n    1.9347  
    3.95000n    1.9347  
    3.96000n    1.9347  
    3.97000n    1.9347  
    3.98000n    1.9347  
    3.99000n    1.9347  
    4.00000n    1.9347  
    4.01000n    1.9347  
    4.02000n    1.9347  
    4.03000n    1.9347  
    4.04000n    1.9347  
    4.05000n    1.9347  
    4.06000n    1.9347  
    4.07000n    1.9347  
    4.08000n    1.9347  
    4.09000n    1.9347  
    4.10000n    1.9347  
    4.11000n    1.9347  
    4.12000n    1.9347  
    4.13000n    1.9347  
    4.14000n    1.9347  
    4.15000n    1.9347  
    4.16000n    1.9347  
    4.17000n    1.9347  
    4.18000n    1.9347  
    4.19000n    1.9347  
    4.20000n    1.9347  
    4.21000n    1.9347  
    4.22000n    1.9347  
    4.23000n    1.9347  
    4.24000n    1.9347  
    4.25000n    1.9347  
    4.26000n    1.9347  
    4.27000n    1.9347  
    4.28000n    1.9347  
    4.29000n    1.9347  
    4.30000n    1.9347  
    4.31000n    1.9347  
    4.32000n    1.9347  
    4.33000n    1.9347  
    4.34000n    1.9347  
    4.35000n    1.9347  
    4.36000n    1.9347  
    4.37000n    1.9347  
    4.38000n    1.9347  
    4.39000n    1.9347  
    4.40000n    1.9347  
    4.41000n    1.9347  
    4.42000n    1.9347  
    4.43000n    1.9347  
    4.44000n    1.9347  
    4.45000n    1.9347  
    4.46000n    1.9347  
    4.47000n    1.9347  
    4.48000n    1.9347  
    4.49000n    1.9347  
    4.50000n    1.9347  
    4.51000n    1.9347  
    4.52000n    1.9347  
    4.53000n    1.9347  
    4.54000n    1.9347  
    4.55000n    1.9347  
    4.56000n    1.9347  
    4.57000n    1.9347  
    4.58000n    1.9347  
    4.59000n    1.9347  
    4.60000n    1.9347  
    4.61000n    1.9347  
    4.62000n    1.9347  
    4.63000n    1.9347  
    4.64000n    1.9347  
    4.65000n    1.9347  
    4.66000n    1.9347  
    4.67000n    1.9347  
    4.68000n    1.9347  
    4.69000n    1.9347  
    4.70000n    1.9347  
    4.71000n    1.9347  
    4.72000n    1.9347  
    4.73000n    1.9347  
    4.74000n    1.9347  
    4.75000n    1.9347  
    4.76000n    1.9347  
    4.77000n    1.9347  
    4.78000n    1.9347  
    4.79000n    1.9347  
    4.80000n    1.9347  
    4.81000n    1.9347  
    4.82000n    1.9347  
    4.83000n    1.9347  
    4.84000n    1.9347  
    4.85000n    1.9347  
    4.86000n    1.9347  
    4.87000n    1.9347  
    4.88000n    1.9347  
    4.89000n    1.9347  
    4.90000n    1.9347  
    4.91000n    1.9347  
    4.92000n    1.9347  
    4.93000n    1.9347  
    4.94000n    1.9347  
    4.95000n    1.9347  
    4.96000n    1.9347  
    4.97000n    1.9347  
    4.98000n    1.9347  
    4.99000n    1.9347  
    5.00000n    1.9347  
    5.01000n    1.9347  
    5.02000n    1.9347  
    5.03000n    1.9347  
    5.04000n    1.9347  
    5.05000n    1.9347  
    5.06000n    1.9347  
    5.07000n    1.9347  
    5.08000n    1.9347  
    5.09000n    1.9347  
    5.10000n    1.9347  
    5.11000n    1.9347  
    5.12000n    1.9347  
    5.13000n    1.9347  
    5.14000n    1.9347  
    5.15000n    1.9347  
    5.16000n    1.9347  
    5.17000n    1.9347  
    5.18000n    1.9347  
    5.19000n    1.9347  
    5.20000n    1.9347  
    5.21000n    1.9347  
    5.22000n    1.9347  
    5.23000n    1.9347  
    5.24000n    1.9347  
    5.25000n    1.9347  
    5.26000n    1.9347  
    5.27000n    1.9347  
    5.28000n    1.9347  
    5.29000n    1.9347  
    5.30000n    1.9347  
    5.31000n    1.9347  
    5.32000n    1.9347  
    5.33000n    1.9347  
    5.34000n    1.9347  
    5.35000n    1.9347  
    5.36000n    1.9347  
    5.37000n    1.9347  
    5.38000n    1.9347  
    5.39000n    1.9347  
    5.40000n    1.9347  
    5.41000n    1.9347  
    5.42000n    1.9347  
    5.43000n    1.9347  
    5.44000n    1.9347  
    5.45000n    1.9347  
    5.46000n    1.9347  
    5.47000n    1.9347  
    5.48000n    1.9347  
    5.49000n    1.9347  
    5.50000n    1.9347  
    5.51000n    1.9347  
    5.52000n    1.9347  
    5.53000n    1.9347  
    5.54000n    1.9347  
    5.55000n    1.9347  
    5.56000n    1.9347  
    5.57000n    1.9347  
    5.58000n    1.9347  
    5.59000n    1.9347  
    5.60000n    1.9347  
    5.61000n    1.9347  
    5.62000n    1.9347  
    5.63000n    1.9347  
    5.64000n    1.9347  
    5.65000n    1.9347  
    5.66000n    1.9347  
    5.67000n    1.9347  
    5.68000n    1.9347  
    5.69000n    1.9347  
    5.70000n    1.9347  
    5.71000n    1.9347  
    5.72000n    1.9347  
    5.73000n    1.9347  
    5.74000n    1.9347  
    5.75000n    1.9347  
    5.76000n    1.9347  
    5.77000n    1.9347  
    5.78000n    1.9347  
    5.79000n    1.9347  
    5.80000n    1.9347  
    5.81000n    1.9347  
    5.82000n    1.9347  
    5.83000n    1.9347  
    5.84000n    1.9347  
    5.85000n    1.9347  
    5.86000n    1.9347  
    5.87000n    1.9347  
    5.88000n    1.9347  
    5.89000n    1.9347  
    5.90000n    1.9347  
    5.91000n    1.9347  
    5.92000n    1.9347  
    5.93000n    1.9347  
    5.94000n    1.9347  
    5.95000n    1.9347  
    5.96000n    1.9347  
    5.97000n    1.9347  
    5.98000n    1.9347  
    5.99000n    1.9347  
    6.00000n    1.9347  
    6.01000n    1.9347  
    6.02000n    1.9347  
    6.03000n    1.9347  
    6.04000n    1.9347  
    6.05000n    1.9347  
    6.06000n    1.9347  
    6.07000n    1.9347  
    6.08000n    1.9347  
    6.09000n    1.9347  
    6.10000n    1.9347  
    6.11000n    1.9347  
    6.12000n    1.9347  
    6.13000n    1.9347  
    6.14000n    1.9347  
    6.15000n    1.9347  
    6.16000n    1.9347  
    6.17000n    1.9347  
    6.18000n    1.9347  
    6.19000n    1.9347  
    6.20000n    1.9347  
    6.21000n    1.9347  
    6.22000n    1.9347  
    6.23000n    1.9347  
    6.24000n    1.9347  
    6.25000n    1.9347  
    6.26000n    1.9347  
    6.27000n    1.9347  
    6.28000n    1.9347  
    6.29000n    1.9347  
    6.30000n    1.9347  
    6.31000n    1.9347  
    6.32000n    1.9347  
    6.33000n    1.9347  
    6.34000n    1.9347  
    6.35000n    1.9347  
    6.36000n    1.9347  
    6.37000n    1.9347  
    6.38000n    1.9347  
    6.39000n    1.9347  
    6.40000n    1.9347  
    6.41000n    1.9347  
    6.42000n    1.9347  
    6.43000n    1.9347  
    6.44000n    1.9347  
    6.45000n    1.9347  
    6.46000n    1.9347  
    6.47000n    1.9347  
    6.48000n    1.9347  
    6.49000n    1.9347  
    6.50000n    1.9347  
    6.51000n    1.9347  
    6.52000n    1.9347  
    6.53000n    1.9347  
    6.54000n    1.9347  
    6.55000n    1.9347  
    6.56000n    1.9347  
    6.57000n    1.9347  
    6.58000n    1.9347  
    6.59000n    1.9347  
    6.60000n    1.9347  
    6.61000n    1.9347  
    6.62000n    1.9347  
    6.63000n    1.9347  
    6.64000n    1.9347  
    6.65000n    1.9347  
    6.66000n    1.9347  
    6.67000n    1.9347  
    6.68000n    1.9347  
    6.69000n    1.9347  
    6.70000n    1.9347  
    6.71000n    1.9347  
    6.72000n    1.9347  
    6.73000n    1.9347  
    6.74000n    1.9347  
    6.75000n    1.9347  
    6.76000n    1.9347  
    6.77000n    1.9347  
    6.78000n    1.9347  
    6.79000n    1.9347  
    6.80000n    1.9347  
    6.81000n    1.9347  
    6.82000n    1.9347  
    6.83000n    1.9347  
    6.84000n    1.9347  
    6.85000n    1.9347  
    6.86000n    1.9347  
    6.87000n    1.9347  
    6.88000n    1.9347  
    6.89000n    1.9347  
    6.90000n    1.9347  
    6.91000n    1.9347  
    6.92000n    1.9347  
    6.93000n    1.9347  
    6.94000n    1.9347  
    6.95000n    1.9347  
    6.96000n    1.9347  
    6.97000n    1.9347  
    6.98000n    1.9347  
    6.99000n    1.9347  
    7.00000n    1.9347  
    7.01000n    1.9347  
    7.02000n    1.9347  
    7.03000n    1.9347  
    7.04000n    1.9347  
    7.05000n    1.9347  
    7.06000n    1.9347  
    7.07000n    1.9347  
    7.08000n    1.9347  
    7.09000n    1.9347  
    7.10000n    1.9347  
    7.11000n    1.9347  
    7.12000n    1.9347  
    7.13000n    1.9347  
    7.14000n    1.9347  
    7.15000n    1.9347  
    7.16000n    1.9347  
    7.17000n    1.9347  
    7.18000n    1.9347  
    7.19000n    1.9347  
    7.20000n    1.9347  
    7.21000n    1.9347  
    7.22000n    1.9347  
    7.23000n    1.9347  
    7.24000n    1.9347  
    7.25000n    1.9347  
    7.26000n    1.9347  
    7.27000n    1.9347  
    7.28000n    1.9347  
    7.29000n    1.9347  
    7.30000n    1.9347  
    7.31000n    1.9347  
    7.32000n    1.9347  
    7.33000n    1.9347  
    7.34000n    1.9347  
    7.35000n    1.9347  
    7.36000n    1.9347  
    7.37000n    1.9347  
    7.38000n    1.9347  
    7.39000n    1.9347  
    7.40000n    1.9347  
    7.41000n    1.9347  
    7.42000n    1.9347  
    7.43000n    1.9347  
    7.44000n    1.9347  
    7.45000n    1.9347  
    7.46000n    1.9347  
    7.47000n    1.9347  
    7.48000n    1.9347  
    7.49000n    1.9347  
    7.50000n    1.9347  
    7.51000n    1.9347  
    7.52000n    1.9347  
    7.53000n    1.9347  
    7.54000n    1.9347  
    7.55000n    1.9347  
    7.56000n    1.9347  
    7.57000n    1.9347  
    7.58000n    1.9347  
    7.59000n    1.9347  
    7.60000n    1.9347  
    7.61000n    1.9347  
    7.62000n    1.9347  
    7.63000n    1.9347  
    7.64000n    1.9347  
    7.65000n    1.9347  
    7.66000n    1.9347  
    7.67000n    1.9347  
    7.68000n    1.9347  
    7.69000n    1.9347  
    7.70000n    1.9347  
    7.71000n    1.9347  
    7.72000n    1.9347  
    7.73000n    1.9347  
    7.74000n    1.9347  
    7.75000n    1.9347  
    7.76000n    1.9347  
    7.77000n    1.9347  
    7.78000n    1.9347  
    7.79000n    1.9347  
    7.80000n    1.9347  
    7.81000n    1.9347  
    7.82000n    1.9347  
    7.83000n    1.9347  
    7.84000n    1.9347  
    7.85000n    1.9347  
    7.86000n    1.9347  
    7.87000n    1.9347  
    7.88000n    1.9347  
    7.89000n    1.9347  
    7.90000n    1.9347  
    7.91000n    1.9347  
    7.92000n    1.9347  
    7.93000n    1.9347  
    7.94000n    1.9347  
    7.95000n    1.9347  
    7.96000n    1.9347  
    7.97000n    1.9347  
    7.98000n    1.9347  
    7.99000n    1.9347  
    8.00000n    1.9347  
    8.01000n    1.9347  
    8.02000n    1.9347  
    8.03000n    1.9347  
    8.04000n    1.9347  
    8.05000n    1.9347  
    8.06000n    1.9347  
    8.07000n    1.9347  
    8.08000n    1.9347  
    8.09000n    1.9347  
    8.10000n    1.9347  
    8.11000n    1.9347  
    8.12000n    1.9347  
    8.13000n    1.9347  
    8.14000n    1.9347  
    8.15000n    1.9347  
    8.16000n    1.9347  
    8.17000n    1.9347  
    8.18000n    1.9347  
    8.19000n    1.9347  
    8.20000n    1.9347  
    8.21000n    1.9347  
    8.22000n    1.9347  
    8.23000n    1.9347  
    8.24000n    1.9347  
    8.25000n    1.9347  
    8.26000n    1.9347  
    8.27000n    1.9347  
    8.28000n    1.9347  
    8.29000n    1.9347  
    8.30000n    1.9347  
    8.31000n    1.9347  
    8.32000n    1.9347  
    8.33000n    1.9347  
    8.34000n    1.9347  
    8.35000n    1.9347  
    8.36000n    1.9347  
    8.37000n    1.9347  
    8.38000n    1.9347  
    8.39000n    1.9347  
    8.40000n    1.9347  
    8.41000n    1.9347  
    8.42000n    1.9347  
    8.43000n    1.9347  
    8.44000n    1.9347  
    8.45000n    1.9347  
    8.46000n    1.9347  
    8.47000n    1.9347  
    8.48000n    1.9347  
    8.49000n    1.9347  
    8.50000n    1.9347  
    8.51000n    1.9347  
    8.52000n    1.9347  
    8.53000n    1.9347  
    8.54000n    1.9347  
    8.55000n    1.9347  
    8.56000n    1.9347  
    8.57000n    1.9347  
    8.58000n    1.9347  
    8.59000n    1.9347  
    8.60000n    1.9347  
    8.61000n    1.9347  
    8.62000n    1.9347  
    8.63000n    1.9347  
    8.64000n    1.9347  
    8.65000n    1.9347  
    8.66000n    1.9347  
    8.67000n    1.9347  
    8.68000n    1.9347  
    8.69000n    1.9347  
    8.70000n    1.9347  
    8.71000n    1.9347  
    8.72000n    1.9347  
    8.73000n    1.9347  
    8.74000n    1.9347  
    8.75000n    1.9347  
    8.76000n    1.9347  
    8.77000n    1.9347  
    8.78000n    1.9347  
    8.79000n    1.9347  
    8.80000n    1.9347  
    8.81000n    1.9347  
    8.82000n    1.9347  
    8.83000n    1.9347  
    8.84000n    1.9347  
    8.85000n    1.9347  
    8.86000n    1.9347  
    8.87000n    1.9347  
    8.88000n    1.9347  
    8.89000n    1.9347  
    8.90000n    1.9347  
    8.91000n    1.9347  
    8.92000n    1.9347  
    8.93000n    1.9347  
    8.94000n    1.9347  
    8.95000n    1.9347  
    8.96000n    1.9347  
    8.97000n    1.9347  
    8.98000n    1.9347  
    8.99000n    1.9347  
    9.00000n    1.9347  
    9.01000n    1.9347  
    9.02000n    1.9347  
    9.03000n    1.9347  
    9.04000n    1.9347  
    9.05000n    1.9347  
    9.06000n    1.9347  
    9.07000n    1.9347  
    9.08000n    1.9347  
    9.09000n    1.9347  
    9.10000n    1.9347  
    9.11000n    1.9347  
    9.12000n    1.9347  
    9.13000n    1.9347  
    9.14000n    1.9347  
    9.15000n    1.9347  
    9.16000n    1.9347  
    9.17000n    1.9347  
    9.18000n    1.9347  
    9.19000n    1.9347  
    9.20000n    1.9347  
    9.21000n    1.9347  
    9.22000n    1.9347  
    9.23000n    1.9347  
    9.24000n    1.9347  
    9.25000n    1.9347  
    9.26000n    1.9347  
    9.27000n    1.9347  
    9.28000n    1.9347  
    9.29000n    1.9347  
    9.30000n    1.9347  
    9.31000n    1.9347  
    9.32000n    1.9347  
    9.33000n    1.9347  
    9.34000n    1.9347  
    9.35000n    1.9347  
    9.36000n    1.9347  
    9.37000n    1.9347  
    9.38000n    1.9347  
    9.39000n    1.9347  
    9.40000n    1.9347  
    9.41000n    1.9347  
    9.42000n    1.9347  
    9.43000n    1.9347  
    9.44000n    1.9347  
    9.45000n    1.9347  
    9.46000n    1.9347  
    9.47000n    1.9347  
    9.48000n    1.9347  
    9.49000n    1.9347  
    9.50000n    1.9347  
    9.51000n    1.9347  
    9.52000n    1.9347  
    9.53000n    1.9347  
    9.54000n    1.9347  
    9.55000n    1.9347  
    9.56000n    1.9347  
    9.57000n    1.9347  
    9.58000n    1.9347  
    9.59000n    1.9347  
    9.60000n    1.9347  
    9.61000n    1.9347  
    9.62000n    1.9347  
    9.63000n    1.9347  
    9.64000n    1.9347  
    9.65000n    1.9347  
    9.66000n    1.9347  
    9.67000n    1.9347  
    9.68000n    1.9347  
    9.69000n    1.9347  
    9.70000n    1.9347  
    9.71000n    1.9347  
    9.72000n    1.9347  
    9.73000n    1.9347  
    9.74000n    1.9347  
    9.75000n    1.9347  
    9.76000n    1.9347  
    9.77000n    1.9347  
    9.78000n    1.9347  
    9.79000n    1.9347  
    9.80000n    1.9347  
    9.81000n    1.9347  
    9.82000n    1.9347  
    9.83000n    1.9347  
    9.84000n    1.9347  
    9.85000n    1.9347  
    9.86000n    1.9347  
    9.87000n    1.9347  
    9.88000n    1.9347  
    9.89000n    1.9347  
    9.90000n    1.9347  
    9.91000n    1.9347  
    9.92000n    1.9347  
    9.93000n    1.9347  
    9.94000n    1.9347  
    9.95000n    1.9347  
    9.96000n    1.9347  
    9.97000n    1.9347  
    9.98000n    1.9347  
    9.99000n    1.9347  
   10.00000n    1.9347  
   10.01000n    1.9347  
   10.02000n    1.9347  
   10.03000n    1.9347  
   10.04000n    1.9347  
   10.05000n    1.9347  
   10.06000n    1.9347  
   10.07000n    1.9347  
   10.08000n    1.9347  
   10.09000n    1.9347  
   10.10000n    1.9347  
   10.11000n    1.9347  
   10.12000n    1.9347  
   10.13000n    1.9347  
   10.14000n    1.9347  
   10.15000n    1.9347  
   10.16000n    1.9347  
   10.17000n    1.9347  
   10.18000n    1.9347  
   10.19000n    1.9347  
   10.20000n    1.9347  
   10.21000n    1.9347  
   10.22000n    1.9347  
   10.23000n    1.9347  
   10.24000n    1.9347  
   10.25000n    1.9347  
   10.26000n    1.9347  
   10.27000n    1.9347  
   10.28000n    1.9347  
   10.29000n    1.9347  
   10.30000n    1.9347  
   10.31000n    1.9347  
   10.32000n    1.9347  
   10.33000n    1.9347  
   10.34000n    1.9347  
   10.35000n    1.9347  
   10.36000n    1.9347  
   10.37000n    1.9347  
   10.38000n    1.9347  
   10.39000n    1.9347  
   10.40000n    1.9347  
   10.41000n    1.9347  
   10.42000n    1.9347  
   10.43000n    1.9347  
   10.44000n    1.9347  
   10.45000n    1.9347  
   10.46000n    1.9347  
   10.47000n    1.9347  
   10.48000n    1.9347  
   10.49000n    1.9347  
   10.50000n    1.9347  
   10.51000n    1.9347  
   10.52000n    1.9347  
   10.53000n    1.9347  
   10.54000n    1.9347  
   10.55000n    1.9347  
   10.56000n    1.9347  
   10.57000n    1.9347  
   10.58000n    1.9347  
   10.59000n    1.9347  
   10.60000n    1.9347  
   10.61000n    1.9347  
   10.62000n    1.9347  
   10.63000n    1.9347  
   10.64000n    1.9347  
   10.65000n    1.9347  
   10.66000n    1.9347  
   10.67000n    1.9347  
   10.68000n    1.9347  
   10.69000n    1.9347  
   10.70000n    1.9347  
   10.71000n    1.9347  
   10.72000n    1.9347  
   10.73000n    1.9347  
   10.74000n    1.9347  
   10.75000n    1.9347  
   10.76000n    1.9347  
   10.77000n    1.9347  
   10.78000n    1.9347  
   10.79000n    1.9347  
   10.80000n    1.9347  
   10.81000n    1.9347  
   10.82000n    1.9347  
   10.83000n    1.9347  
   10.84000n    1.9347  
   10.85000n    1.9347  
   10.86000n    1.9347  
   10.87000n    1.9347  
   10.88000n    1.9347  
   10.89000n    1.9347  
   10.90000n    1.9347  
   10.91000n    1.9347  
   10.92000n    1.9347  
   10.93000n    1.9347  
   10.94000n    1.9347  
   10.95000n    1.9347  
   10.96000n    1.9347  
   10.97000n    1.9347  
   10.98000n    1.9347  
   10.99000n    1.9347  
   11.00000n    1.9347  
   11.01000n    1.9347  
   11.02000n    1.9347  
   11.03000n    1.9347  
   11.04000n    1.9347  
   11.05000n    1.9347  
   11.06000n    1.9347  
   11.07000n    1.9347  
   11.08000n    1.9347  
   11.09000n    1.9347  
   11.10000n    1.9347  
   11.11000n    1.9347  
   11.12000n    1.9347  
   11.13000n    1.9347  
   11.14000n    1.9347  
   11.15000n    1.9347  
   11.16000n    1.9347  
   11.17000n    1.9347  
   11.18000n    1.9347  
   11.19000n    1.9347  
   11.20000n    1.9347  
   11.21000n    1.9347  
   11.22000n    1.9347  
   11.23000n    1.9347  
   11.24000n    1.9347  
   11.25000n    1.9347  
   11.26000n    1.9347  
   11.27000n    1.9347  
   11.28000n    1.9347  
   11.29000n    1.9347  
   11.30000n    1.9347  
   11.31000n    1.9347  
   11.32000n    1.9347  
   11.33000n    1.9347  
   11.34000n    1.9347  
   11.35000n    1.9347  
   11.36000n    1.9347  
   11.37000n    1.9347  
   11.38000n    1.9347  
   11.39000n    1.9347  
   11.40000n    1.9347  
   11.41000n    1.9347  
   11.42000n    1.9347  
   11.43000n    1.9347  
   11.44000n    1.9347  
   11.45000n    1.9347  
   11.46000n    1.9347  
   11.47000n    1.9347  
   11.48000n    1.9347  
   11.49000n    1.9347  
   11.50000n    1.9347  
   11.51000n    1.9347  
   11.52000n    1.9347  
   11.53000n    1.9347  
   11.54000n    1.9347  
   11.55000n    1.9347  
   11.56000n    1.9347  
   11.57000n    1.9347  
   11.58000n    1.9347  
   11.59000n    1.9347  
   11.60000n    1.9347  
   11.61000n    1.9347  
   11.62000n    1.9347  
   11.63000n    1.9347  
   11.64000n    1.9347  
   11.65000n    1.9347  
   11.66000n    1.9347  
   11.67000n    1.9347  
   11.68000n    1.9347  
   11.69000n    1.9347  
   11.70000n    1.9347  
   11.71000n    1.9347  
   11.72000n    1.9347  
   11.73000n    1.9347  
   11.74000n    1.9347  
   11.75000n    1.9347  
   11.76000n    1.9347  
   11.77000n    1.9347  
   11.78000n    1.9347  
   11.79000n    1.9347  
   11.80000n    1.9347  
   11.81000n    1.9347  
   11.82000n    1.9347  
   11.83000n    1.9347  
   11.84000n    1.9347  
   11.85000n    1.9347  
   11.86000n    1.9347  
   11.87000n    1.9347  
   11.88000n    1.9347  
   11.89000n    1.9347  
   11.90000n    1.9347  
   11.91000n    1.9347  
   11.92000n    1.9347  
   11.93000n    1.9347  
   11.94000n    1.9347  
   11.95000n    1.9347  
   11.96000n    1.9347  
   11.97000n    1.9347  
   11.98000n    1.9347  
   11.99000n    1.9347  
   12.00000n    1.9347  
   12.01000n    1.9347  
   12.02000n    1.9347  
   12.03000n    1.9347  
   12.04000n    1.9347  
   12.05000n    1.9347  
   12.06000n    1.9347  
   12.07000n    1.9347  
   12.08000n    1.9347  
   12.09000n    1.9347  
   12.10000n    1.9347  
   12.11000n    1.9347  
   12.12000n    1.9347  
   12.13000n    1.9347  
   12.14000n    1.9347  
   12.15000n    1.9347  
   12.16000n    1.9347  
   12.17000n    1.9347  
   12.18000n    1.9347  
   12.19000n    1.9347  
   12.20000n    1.9347  
   12.21000n    1.9347  
   12.22000n    1.9347  
   12.23000n    1.9347  
   12.24000n    1.9347  
   12.25000n    1.9347  
   12.26000n    1.9347  
   12.27000n    1.9347  
   12.28000n    1.9347  
   12.29000n    1.9347  
   12.30000n    1.9347  
   12.31000n    1.9347  
   12.32000n    1.9347  
   12.33000n    1.9347  
   12.34000n    1.9347  
   12.35000n    1.9347  
   12.36000n    1.9347  
   12.37000n    1.9347  
   12.38000n    1.9347  
   12.39000n    1.9347  
   12.40000n    1.9347  
   12.41000n    1.9347  
   12.42000n    1.9347  
   12.43000n    1.9347  
   12.44000n    1.9347  
   12.45000n    1.9347  
   12.46000n    1.9347  
   12.47000n    1.9347  
   12.48000n    1.9347  
   12.49000n    1.9347  
   12.50000n    1.9347  
   12.51000n    1.9347  
   12.52000n    1.9347  
   12.53000n    1.9347  
   12.54000n    1.9347  
   12.55000n    1.9347  
   12.56000n    1.9347  
   12.57000n    1.9347  
   12.58000n    1.9347  
   12.59000n    1.9347  
   12.60000n    1.9347  
   12.61000n    1.9347  
   12.62000n    1.9347  
   12.63000n    1.9347  
   12.64000n    1.9347  
   12.65000n    1.9347  
   12.66000n    1.9347  
   12.67000n    1.9347  
   12.68000n    1.9347  
   12.69000n    1.9347  
   12.70000n    1.9347  
   12.71000n    1.9347  
   12.72000n    1.9347  
   12.73000n    1.9347  
   12.74000n    1.9347  
   12.75000n    1.9347  
   12.76000n    1.9347  
   12.77000n    1.9347  
   12.78000n    1.9347  
   12.79000n    1.9347  
   12.80000n    1.9347  
   12.81000n    1.9347  
   12.82000n    1.9347  
   12.83000n    1.9347  
   12.84000n    1.9347  
   12.85000n    1.9347  
   12.86000n    1.9347  
   12.87000n    1.9347  
   12.88000n    1.9347  
   12.89000n    1.9347  
   12.90000n    1.9347  
   12.91000n    1.9347  
   12.92000n    1.9347  
   12.93000n    1.9347  
   12.94000n    1.9347  
   12.95000n    1.9347  
   12.96000n    1.9347  
   12.97000n    1.9347  
   12.98000n    1.9347  
   12.99000n    1.9347  
   13.00000n    1.9347  
   13.01000n    1.9347  
   13.02000n    1.9347  
   13.03000n    1.9347  
   13.04000n    1.9347  
   13.05000n    1.9347  
   13.06000n    1.9347  
   13.07000n    1.9347  
   13.08000n    1.9347  
   13.09000n    1.9347  
   13.10000n    1.9347  
   13.11000n    1.9347  
   13.12000n    1.9347  
   13.13000n    1.9347  
   13.14000n    1.9347  
   13.15000n    1.9347  
   13.16000n    1.9347  
   13.17000n    1.9347  
   13.18000n    1.9347  
   13.19000n    1.9347  
   13.20000n    1.9347  
   13.21000n    1.9347  
   13.22000n    1.9347  
   13.23000n    1.9347  
   13.24000n    1.9347  
   13.25000n    1.9347  
   13.26000n    1.9347  
   13.27000n    1.9347  
   13.28000n    1.9347  
   13.29000n    1.9347  
   13.30000n    1.9347  
   13.31000n    1.9347  
   13.32000n    1.9347  
   13.33000n    1.9347  
   13.34000n    1.9347  
   13.35000n    1.9347  
   13.36000n    1.9347  
   13.37000n    1.9347  
   13.38000n    1.9347  
   13.39000n    1.9347  
   13.40000n    1.9347  
   13.41000n    1.9347  
   13.42000n    1.9347  
   13.43000n    1.9347  
   13.44000n    1.9347  
   13.45000n    1.9347  
   13.46000n    1.9347  
   13.47000n    1.9347  
   13.48000n    1.9347  
   13.49000n    1.9347  
   13.50000n    1.9347  
   13.51000n    1.9347  
   13.52000n    1.9347  
   13.53000n    1.9347  
   13.54000n    1.9347  
   13.55000n    1.9347  
   13.56000n    1.9347  
   13.57000n    1.9347  
   13.58000n    1.9347  
   13.59000n    1.9347  
   13.60000n    1.9347  
   13.61000n    1.9347  
   13.62000n    1.9347  
   13.63000n    1.9347  
   13.64000n    1.9347  
   13.65000n    1.9347  
   13.66000n    1.9347  
   13.67000n    1.9347  
   13.68000n    1.9347  
   13.69000n    1.9347  
   13.70000n    1.9347  
   13.71000n    1.9347  
   13.72000n    1.9347  
   13.73000n    1.9347  
   13.74000n    1.9347  
   13.75000n    1.9347  
   13.76000n    1.9347  
   13.77000n    1.9347  
   13.78000n    1.9347  
   13.79000n    1.9347  
   13.80000n    1.9347  
   13.81000n    1.9347  
   13.82000n    1.9347  
   13.83000n    1.9347  
   13.84000n    1.9347  
   13.85000n    1.9347  
   13.86000n    1.9347  
   13.87000n    1.9347  
   13.88000n    1.9347  
   13.89000n    1.9347  
   13.90000n    1.9347  
   13.91000n    1.9347  
   13.92000n    1.9347  
   13.93000n    1.9347  
   13.94000n    1.9347  
   13.95000n    1.9347  
   13.96000n    1.9347  
   13.97000n    1.9347  
   13.98000n    1.9347  
   13.99000n    1.9347  
   14.00000n    1.9347  
   14.01000n    1.9347  
   14.02000n    1.9347  
   14.03000n    1.9347  
   14.04000n    1.9347  
   14.05000n    1.9347  
   14.06000n    1.9347  
   14.07000n    1.9347  
   14.08000n    1.9347  
   14.09000n    1.9347  
   14.10000n    1.9347  
   14.11000n    1.9347  
   14.12000n    1.9347  
   14.13000n    1.9347  
   14.14000n    1.9347  
   14.15000n    1.9347  
   14.16000n    1.9347  
   14.17000n    1.9347  
   14.18000n    1.9347  
   14.19000n    1.9347  
   14.20000n    1.9347  
   14.21000n    1.9347  
   14.22000n    1.9347  
   14.23000n    1.9347  
   14.24000n    1.9347  
   14.25000n    1.9347  
   14.26000n    1.9347  
   14.27000n    1.9347  
   14.28000n    1.9347  
   14.29000n    1.9347  
   14.30000n    1.9347  
   14.31000n    1.9347  
   14.32000n    1.9347  
   14.33000n    1.9347  
   14.34000n    1.9347  
   14.35000n    1.9347  
   14.36000n    1.9347  
   14.37000n    1.9347  
   14.38000n    1.9347  
   14.39000n    1.9347  
   14.40000n    1.9347  
   14.41000n    1.9347  
   14.42000n    1.9347  
   14.43000n    1.9347  
   14.44000n    1.9347  
   14.45000n    1.9347  
   14.46000n    1.9347  
   14.47000n    1.9347  
   14.48000n    1.9347  
   14.49000n    1.9347  
   14.50000n    1.9347  
   14.51000n    1.9347  
   14.52000n    1.9347  
   14.53000n    1.9347  
   14.54000n    1.9347  
   14.55000n    1.9347  
   14.56000n    1.9347  
   14.57000n    1.9347  
   14.58000n    1.9347  
   14.59000n    1.9347  
   14.60000n    1.9347  
   14.61000n    1.9347  
   14.62000n    1.9347  
   14.63000n    1.9347  
   14.64000n    1.9347  
   14.65000n    1.9347  
   14.66000n    1.9347  
   14.67000n    1.9347  
   14.68000n    1.9347  
   14.69000n    1.9347  
   14.70000n    1.9347  
   14.71000n    1.9347  
   14.72000n    1.9347  
   14.73000n    1.9347  
   14.74000n    1.9347  
   14.75000n    1.9347  
   14.76000n    1.9347  
   14.77000n    1.9347  
   14.78000n    1.9347  
   14.79000n    1.9347  
   14.80000n    1.9347  
   14.81000n    1.9347  
   14.82000n    1.9347  
   14.83000n    1.9347  
   14.84000n    1.9347  
   14.85000n    1.9347  
   14.86000n    1.9347  
   14.87000n    1.9347  
   14.88000n    1.9347  
   14.89000n    1.9347  
   14.90000n    1.9347  
   14.91000n    1.9347  
   14.92000n    1.9347  
   14.93000n    1.9347  
   14.94000n    1.9347  
   14.95000n    1.9347  
   14.96000n    1.9347  
   14.97000n    1.9347  
   14.98000n    1.9347  
   14.99000n    1.9347  
   15.00000n    1.9347  
   15.01000n    1.9347  
   15.02000n    1.9347  
   15.03000n    1.9347  
   15.04000n    1.9347  
   15.05000n    1.9347  
   15.06000n    1.9347  
   15.07000n    1.9347  
   15.08000n    1.9347  
   15.09000n    1.9347  
   15.10000n    1.9347  
   15.11000n    1.9347  
   15.12000n    1.9347  
   15.13000n    1.9347  
   15.14000n    1.9347  
   15.15000n    1.9347  
   15.16000n    1.9347  
   15.17000n    1.9347  
   15.18000n    1.9347  
   15.19000n    1.9347  
   15.20000n    1.9347  
   15.21000n    1.9347  
   15.22000n    1.9347  
   15.23000n    1.9347  
   15.24000n    1.9347  
   15.25000n    1.9347  
   15.26000n    1.9347  
   15.27000n    1.9347  
   15.28000n    1.9347  
   15.29000n    1.9347  
   15.30000n    1.9347  
   15.31000n    1.9347  
   15.32000n    1.9347  
   15.33000n    1.9347  
   15.34000n    1.9347  
   15.35000n    1.9347  
   15.36000n    1.9347  
   15.37000n    1.9347  
   15.38000n    1.9347  
   15.39000n    1.9347  
   15.40000n    1.9347  
   15.41000n    1.9347  
   15.42000n    1.9347  
   15.43000n    1.9347  
   15.44000n    1.9347  
   15.45000n    1.9347  
   15.46000n    1.9347  
   15.47000n    1.9347  
   15.48000n    1.9347  
   15.49000n    1.9347  
   15.50000n    1.9347  
   15.51000n    1.9347  
   15.52000n    1.9347  
   15.53000n    1.9347  
   15.54000n    1.9347  
   15.55000n    1.9347  
   15.56000n    1.9347  
   15.57000n    1.9347  
   15.58000n    1.9347  
   15.59000n    1.9347  
   15.60000n    1.9347  
   15.61000n    1.9347  
   15.62000n    1.9347  
   15.63000n    1.9347  
   15.64000n    1.9347  
   15.65000n    1.9347  
   15.66000n    1.9347  
   15.67000n    1.9347  
   15.68000n    1.9347  
   15.69000n    1.9347  
   15.70000n    1.9347  
   15.71000n    1.9347  
   15.72000n    1.9347  
   15.73000n    1.9347  
   15.74000n    1.9347  
   15.75000n    1.9347  
   15.76000n    1.9347  
   15.77000n    1.9347  
   15.78000n    1.9347  
   15.79000n    1.9347  
   15.80000n    1.9347  
   15.81000n    1.9347  
   15.82000n    1.9347  
   15.83000n    1.9347  
   15.84000n    1.9347  
   15.85000n    1.9347  
   15.86000n    1.9347  
   15.87000n    1.9347  
   15.88000n    1.9347  
   15.89000n    1.9347  
   15.90000n    1.9347  
   15.91000n    1.9347  
   15.92000n    1.9347  
   15.93000n    1.9347  
   15.94000n    1.9347  
   15.95000n    1.9347  
   15.96000n    1.9347  
   15.97000n    1.9347  
   15.98000n    1.9347  
   15.99000n    1.9347  
   16.00000n    1.9347  
   16.01000n    1.9347  
   16.02000n    1.9347  
   16.03000n    1.9347  
   16.04000n    1.9347  
   16.05000n    1.9347  
   16.06000n    1.9347  
   16.07000n    1.9347  
   16.08000n    1.9347  
   16.09000n    1.9347  
   16.10000n    1.9347  
   16.11000n    1.9347  
   16.12000n    1.9347  
   16.13000n    1.9347  
   16.14000n    1.9347  
   16.15000n    1.9347  
   16.16000n    1.9347  
   16.17000n    1.9347  
   16.18000n    1.9347  
   16.19000n    1.9347  
   16.20000n    1.9347  
   16.21000n    1.9347  
   16.22000n    1.9347  
   16.23000n    1.9347  
   16.24000n    1.9347  
   16.25000n    1.9347  
   16.26000n    1.9347  
   16.27000n    1.9347  
   16.28000n    1.9347  
   16.29000n    1.9347  
   16.30000n    1.9347  
   16.31000n    1.9347  
   16.32000n    1.9347  
   16.33000n    1.9347  
   16.34000n    1.9347  
   16.35000n    1.9347  
   16.36000n    1.9347  
   16.37000n    1.9347  
   16.38000n    1.9347  
   16.39000n    1.9347  
   16.40000n    1.9347  
   16.41000n    1.9347  
   16.42000n    1.9347  
   16.43000n    1.9347  
   16.44000n    1.9347  
   16.45000n    1.9347  
   16.46000n    1.9347  
   16.47000n    1.9347  
   16.48000n    1.9347  
   16.49000n    1.9347  
   16.50000n    1.9347  
   16.51000n    1.9347  
   16.52000n    1.9347  
   16.53000n    1.9347  
   16.54000n    1.9347  
   16.55000n    1.9347  
   16.56000n    1.9347  
   16.57000n    1.9347  
   16.58000n    1.9347  
   16.59000n    1.9347  
   16.60000n    1.9347  
   16.61000n    1.9347  
   16.62000n    1.9347  
   16.63000n    1.9347  
   16.64000n    1.9347  
   16.65000n    1.9347  
   16.66000n    1.9347  
   16.67000n    1.9347  
   16.68000n    1.9347  
   16.69000n    1.9347  
   16.70000n    1.9347  
   16.71000n    1.9347  
   16.72000n    1.9347  
   16.73000n    1.9347  
   16.74000n    1.9347  
   16.75000n    1.9347  
   16.76000n    1.9347  
   16.77000n    1.9347  
   16.78000n    1.9347  
   16.79000n    1.9347  
   16.80000n    1.9347  
   16.81000n    1.9347  
   16.82000n    1.9347  
   16.83000n    1.9347  
   16.84000n    1.9347  
   16.85000n    1.9347  
   16.86000n    1.9347  
   16.87000n    1.9347  
   16.88000n    1.9347  
   16.89000n    1.9347  
   16.90000n    1.9347  
   16.91000n    1.9347  
   16.92000n    1.9347  
   16.93000n    1.9347  
   16.94000n    1.9347  
   16.95000n    1.9347  
   16.96000n    1.9347  
   16.97000n    1.9347  
   16.98000n    1.9347  
   16.99000n    1.9347  
   17.00000n    1.9347  
   17.01000n    1.9347  
   17.02000n    1.9347  
   17.03000n    1.9347  
   17.04000n    1.9347  
   17.05000n    1.9347  
   17.06000n    1.9347  
   17.07000n    1.9347  
   17.08000n    1.9347  
   17.09000n    1.9347  
   17.10000n    1.9347  
   17.11000n    1.9347  
   17.12000n    1.9347  
   17.13000n    1.9347  
   17.14000n    1.9347  
   17.15000n    1.9347  
   17.16000n    1.9347  
   17.17000n    1.9347  
   17.18000n    1.9347  
   17.19000n    1.9347  
   17.20000n    1.9347  
   17.21000n    1.9347  
   17.22000n    1.9347  
   17.23000n    1.9347  
   17.24000n    1.9347  
   17.25000n    1.9347  
   17.26000n    1.9347  
   17.27000n    1.9347  
   17.28000n    1.9347  
   17.29000n    1.9347  
   17.30000n    1.9347  
   17.31000n    1.9347  
   17.32000n    1.9347  
   17.33000n    1.9347  
   17.34000n    1.9347  
   17.35000n    1.9347  
   17.36000n    1.9347  
   17.37000n    1.9347  
   17.38000n    1.9347  
   17.39000n    1.9347  
   17.40000n    1.9347  
   17.41000n    1.9347  
   17.42000n    1.9347  
   17.43000n    1.9347  
   17.44000n    1.9347  
   17.45000n    1.9347  
   17.46000n    1.9347  
   17.47000n    1.9347  
   17.48000n    1.9347  
   17.49000n    1.9347  
   17.50000n    1.9347  
   17.51000n    1.9347  
   17.52000n    1.9347  
   17.53000n    1.9347  
   17.54000n    1.9347  
   17.55000n    1.9347  
   17.56000n    1.9347  
   17.57000n    1.9347  
   17.58000n    1.9347  
   17.59000n    1.9347  
   17.60000n    1.9347  
   17.61000n    1.9347  
   17.62000n    1.9347  
   17.63000n    1.9347  
   17.64000n    1.9347  
   17.65000n    1.9347  
   17.66000n    1.9347  
   17.67000n    1.9347  
   17.68000n    1.9347  
   17.69000n    1.9347  
   17.70000n    1.9347  
   17.71000n    1.9347  
   17.72000n    1.9347  
   17.73000n    1.9347  
   17.74000n    1.9347  
   17.75000n    1.9347  
   17.76000n    1.9347  
   17.77000n    1.9347  
   17.78000n    1.9347  
   17.79000n    1.9347  
   17.80000n    1.9347  
   17.81000n    1.9347  
   17.82000n    1.9347  
   17.83000n    1.9347  
   17.84000n    1.9347  
   17.85000n    1.9347  
   17.86000n    1.9347  
   17.87000n    1.9347  
   17.88000n    1.9347  
   17.89000n    1.9347  
   17.90000n    1.9347  
   17.91000n    1.9347  
   17.92000n    1.9347  
   17.93000n    1.9347  
   17.94000n    1.9347  
   17.95000n    1.9347  
   17.96000n    1.9347  
   17.97000n    1.9347  
   17.98000n    1.9347  
   17.99000n    1.9347  
   18.00000n    1.9347  
   18.01000n    1.9347  
   18.02000n    1.9347  
   18.03000n    1.9347  
   18.04000n    1.9347  
   18.05000n    1.9347  
   18.06000n    1.9347  
   18.07000n    1.9347  
   18.08000n    1.9347  
   18.09000n    1.9347  
   18.10000n    1.9347  
   18.11000n    1.9347  
   18.12000n    1.9347  
   18.13000n    1.9347  
   18.14000n    1.9347  
   18.15000n    1.9347  
   18.16000n    1.9347  
   18.17000n    1.9347  
   18.18000n    1.9347  
   18.19000n    1.9347  
   18.20000n    1.9347  
   18.21000n    1.9347  
   18.22000n    1.9347  
   18.23000n    1.9347  
   18.24000n    1.9347  
   18.25000n    1.9347  
   18.26000n    1.9347  
   18.27000n    1.9347  
   18.28000n    1.9347  
   18.29000n    1.9347  
   18.30000n    1.9347  
   18.31000n    1.9347  
   18.32000n    1.9347  
   18.33000n    1.9347  
   18.34000n    1.9347  
   18.35000n    1.9347  
   18.36000n    1.9347  
   18.37000n    1.9347  
   18.38000n    1.9347  
   18.39000n    1.9347  
   18.40000n    1.9347  
   18.41000n    1.9347  
   18.42000n    1.9347  
   18.43000n    1.9347  
   18.44000n    1.9347  
   18.45000n    1.9347  
   18.46000n    1.9347  
   18.47000n    1.9347  
   18.48000n    1.9347  
   18.49000n    1.9347  
   18.50000n    1.9347  
   18.51000n    1.9347  
   18.52000n    1.9347  
   18.53000n    1.9347  
   18.54000n    1.9347  
   18.55000n    1.9347  
   18.56000n    1.9347  
   18.57000n    1.9347  
   18.58000n    1.9347  
   18.59000n    1.9347  
   18.60000n    1.9347  
   18.61000n    1.9347  
   18.62000n    1.9347  
   18.63000n    1.9347  
   18.64000n    1.9347  
   18.65000n    1.9347  
   18.66000n    1.9347  
   18.67000n    1.9347  
   18.68000n    1.9347  
   18.69000n    1.9347  
   18.70000n    1.9347  
   18.71000n    1.9347  
   18.72000n    1.9347  
   18.73000n    1.9347  
   18.74000n    1.9347  
   18.75000n    1.9347  
   18.76000n    1.9347  
   18.77000n    1.9347  
   18.78000n    1.9347  
   18.79000n    1.9347  
   18.80000n    1.9347  
   18.81000n    1.9347  
   18.82000n    1.9347  
   18.83000n    1.9347  
   18.84000n    1.9347  
   18.85000n    1.9347  
   18.86000n    1.9347  
   18.87000n    1.9347  
   18.88000n    1.9347  
   18.89000n    1.9347  
   18.90000n    1.9347  
   18.91000n    1.9347  
   18.92000n    1.9347  
   18.93000n    1.9347  
   18.94000n    1.9347  
   18.95000n    1.9347  
   18.96000n    1.9347  
   18.97000n    1.9347  
   18.98000n    1.9347  
   18.99000n    1.9347  
   19.00000n    1.9347  
   19.01000n    1.9347  
   19.02000n    1.9347  
   19.03000n    1.9347  
   19.04000n    1.9347  
   19.05000n    1.9347  
   19.06000n    1.9347  
   19.07000n    1.9347  
   19.08000n    1.9347  
   19.09000n    1.9347  
   19.10000n    1.9347  
   19.11000n    1.9347  
   19.12000n    1.9347  
   19.13000n    1.9347  
   19.14000n    1.9347  
   19.15000n    1.9347  
   19.16000n    1.9347  
   19.17000n    1.9347  
   19.18000n    1.9347  
   19.19000n    1.9347  
   19.20000n    1.9347  
   19.21000n    1.9347  
   19.22000n    1.9347  
   19.23000n    1.9347  
   19.24000n    1.9347  
   19.25000n    1.9347  
   19.26000n    1.9347  
   19.27000n    1.9347  
   19.28000n    1.9347  
   19.29000n    1.9347  
   19.30000n    1.9347  
   19.31000n    1.9347  
   19.32000n    1.9347  
   19.33000n    1.9347  
   19.34000n    1.9347  
   19.35000n    1.9347  
   19.36000n    1.9347  
   19.37000n    1.9347  
   19.38000n    1.9347  
   19.39000n    1.9347  
   19.40000n    1.9347  
   19.41000n    1.9347  
   19.42000n    1.9347  
   19.43000n    1.9347  
   19.44000n    1.9347  
   19.45000n    1.9347  
   19.46000n    1.9347  
   19.47000n    1.9347  
   19.48000n    1.9347  
   19.49000n    1.9347  
   19.50000n    1.9347  
   19.51000n    1.9347  
   19.52000n    1.9347  
   19.53000n    1.9347  
   19.54000n    1.9347  
   19.55000n    1.9347  
   19.56000n    1.9347  
   19.57000n    1.9347  
   19.58000n    1.9347  
   19.59000n    1.9347  
   19.60000n    1.9347  
   19.61000n    1.9347  
   19.62000n    1.9347  
   19.63000n    1.9347  
   19.64000n    1.9347  
   19.65000n    1.9347  
   19.66000n    1.9347  
   19.67000n    1.9347  
   19.68000n    1.9347  
   19.69000n    1.9347  
   19.70000n    1.9347  
   19.71000n    1.9347  
   19.72000n    1.9347  
   19.73000n    1.9347  
   19.74000n    1.9347  
   19.75000n    1.9347  
   19.76000n    1.9347  
   19.77000n    1.9347  
   19.78000n    1.9347  
   19.79000n    1.9347  
   19.80000n    1.9347  
   19.81000n    1.9347  
   19.82000n    1.9347  
   19.83000n    1.9347  
   19.84000n    1.9347  
   19.85000n    1.9347  
   19.86000n    1.9347  
   19.87000n    1.9347  
   19.88000n    1.9347  
   19.89000n    1.9347  
   19.90000n    1.9347  
   19.91000n    1.9347  
   19.92000n    1.9347  
   19.93000n    1.9347  
   19.94000n    1.9347  
   19.95000n    1.9347  
   19.96000n    1.9347  
   19.97000n    1.9347  
   19.98000n    1.9347  
   19.99000n    1.9347  
   20.00000n    1.9347  
y
x

 time         voltage   
             8          
    0.          0.      
   10.00000p    0.      
   20.00000p    0.      
   30.00000p    0.      
   40.00000p    0.      
   50.00000p    0.      
   60.00000p    0.      
   70.00000p    0.      
   80.00000p    0.      
   90.00000p    0.      
  100.00000p    0.      
  110.00000p    0.      
  120.00000p    0.      
  130.00000p    0.      
  140.00000p    0.      
  150.00000p    0.      
  160.00000p    0.      
  170.00000p    0.      
  180.00000p    0.      
  190.00000p    0.      
  200.00000p    0.      
  210.00000p    0.      
  220.00000p    0.      
  230.00000p    0.      
  240.00000p    0.      
  250.00000p    0.      
  260.00000p    0.      
  270.00000p    0.      
  280.00000p    0.      
  290.00000p    0.      
  300.00000p    0.      
  310.00000p    0.      
  320.00000p    0.      
  330.00000p    0.      
  340.00000p    0.      
  350.00000p    0.      
  360.00000p    0.      
  370.00000p    0.      
  380.00000p    0.      
  390.00000p    0.      
  400.00000p    0.      
  410.00000p    0.      
  420.00000p    0.      
  430.00000p    0.      
  440.00000p    0.      
  450.00000p    0.      
  460.00000p    0.      
  470.00000p    0.      
  480.00000p    0.      
  490.00000p    0.      
  500.00000p    0.      
  510.00000p    0.      
  520.00000p    0.      
  530.00000p    0.      
  540.00000p    0.      
  550.00000p    0.      
  560.00000p    0.      
  570.00000p    0.      
  580.00000p    0.      
  590.00000p    0.      
  600.00000p    0.      
  610.00000p    0.      
  620.00000p    0.      
  630.00000p    0.      
  640.00000p    0.      
  650.00000p    0.      
  660.00000p    0.      
  670.00000p    0.      
  680.00000p    0.      
  690.00000p    0.      
  700.00000p    0.      
  710.00000p    0.      
  720.00000p    0.      
  730.00000p    0.      
  740.00000p    0.      
  750.00000p    0.      
  760.00000p    0.      
  770.00000p    0.      
  780.00000p    0.      
  790.00000p    0.      
  800.00000p    0.      
  810.00000p    0.      
  820.00000p    0.      
  830.00000p    0.      
  840.00000p    0.      
  850.00000p    0.      
  860.00000p    0.      
  870.00000p    0.      
  880.00000p    0.      
  890.00000p    0.      
  900.00000p    0.      
  910.00000p    0.      
  920.00000p    0.      
  930.00000p    0.      
  940.00000p    0.      
  950.00000p    0.      
  960.00000p    0.      
  970.00000p    0.      
  980.00000p    0.      
  990.00000p    0.      
    1.00000n    0.      
    1.01000n  686.5922m 
    1.02000n    1.5282  
    1.03000n    1.7825  
    1.04000n    1.8627  
    1.05000n    1.8890  
    1.06000n    1.9002  
    1.07000n    1.9083  
    1.08000n    1.9123  
    1.09000n    1.9163  
    1.10000n    1.9188  
    1.11000n    1.9207  
    1.12000n    1.9227  
    1.13000n    1.9243  
    1.14000n    1.9253  
    1.15000n    1.9263  
    1.16000n    1.9273  
    1.17000n    1.9283  
    1.18000n    1.9290  
    1.19000n    1.9296  
    1.20000n    1.9301  
    1.21000n    1.9306  
    1.22000n    1.9311  
    1.23000n    1.9317  
    1.24000n    1.9321  
    1.25000n    1.9323  
    1.26000n    1.9325  
    1.27000n    1.9327  
    1.28000n    1.9330  
    1.29000n    1.9332  
    1.30000n    1.9334  
    1.31000n    1.9336  
    1.32000n    1.9338  
    1.33000n    1.9339  
    1.34000n    1.9339  
    1.35000n    1.9340  
    1.36000n    1.9341  
    1.37000n    1.9341  
    1.38000n    1.9342  
    1.39000n    1.9343  
    1.40000n    1.9343  
    1.41000n    1.9344  
    1.42000n    1.9345  
    1.43000n    1.9345  
    1.44000n    1.9345  
    1.45000n    1.9346  
    1.46000n    1.9346  
    1.47000n    1.9346  
    1.48000n    1.9346  
    1.49000n    1.9346  
    1.50000n    1.9346  
    1.51000n    1.9346  
    1.52000n    1.9346  
    1.53000n    1.9346  
    1.54000n    1.9346  
    1.55000n    1.9347  
    1.56000n    1.9347  
    1.57000n    1.9347  
    1.58000n    1.9347  
    1.59000n    1.9347  
    1.60000n    1.9347  
    1.61000n    1.9347  
    1.62000n    1.9347  
    1.63000n    1.9347  
    1.64000n    1.9347  
    1.65000n    1.9347  
    1.66000n    1.9347  
    1.67000n    1.9347  
    1.68000n    1.9347  
    1.69000n    1.9347  
    1.70000n    1.9347  
    1.71000n    1.9347  
    1.72000n    1.9347  
    1.73000n    1.9347  
    1.74000n    1.9347  
    1.75000n    1.9347  
    1.76000n    1.9347  
    1.77000n    1.9347  
    1.78000n    1.9347  
    1.79000n    1.9347  
    1.80000n    1.9347  
    1.81000n    1.9347  
    1.82000n    1.9347  
    1.83000n    1.9347  
    1.84000n    1.9347  
    1.85000n    1.9347  
    1.86000n    1.9347  
    1.87000n    1.9347  
    1.88000n    1.9347  
    1.89000n    1.9347  
    1.90000n    1.9347  
    1.91000n    1.9347  
    1.92000n    1.9347  
    1.93000n    1.9347  
    1.94000n    1.9347  
    1.95000n    1.9347  
    1.96000n    1.9347  
    1.97000n    1.9347  
    1.98000n    1.9347  
    1.99000n    1.9347  
    2.00000n    1.9347  
    2.01000n    1.9347  
    2.02000n    1.9347  
    2.03000n    1.9347  
    2.04000n    1.9347  
    2.05000n    1.9347  
    2.06000n    1.9347  
    2.07000n    1.9347  
    2.08000n    1.9347  
    2.09000n    1.9347  
    2.10000n    1.9347  
    2.11000n    1.9347  
    2.12000n    1.9347  
    2.13000n    1.9347  
    2.14000n    1.9347  
    2.15000n    1.9347  
    2.16000n    1.9347  
    2.17000n    1.9347  
    2.18000n    1.9347  
    2.19000n    1.9347  
    2.20000n    1.9347  
    2.21000n    1.9347  
    2.22000n    1.9347  
    2.23000n    1.9347  
    2.24000n    1.9347  
    2.25000n    1.9347  
    2.26000n    1.9347  
    2.27000n    1.9347  
    2.28000n    1.9347  
    2.29000n    1.9347  
    2.30000n    1.9347  
    2.31000n    1.9347  
    2.32000n    1.9347  
    2.33000n    1.9347  
    2.34000n    1.9347  
    2.35000n    1.9347  
    2.36000n    1.9347  
    2.37000n    1.9347  
    2.38000n    1.9347  
    2.39000n    1.9347  
    2.40000n    1.9347  
    2.41000n    1.9347  
    2.42000n    1.9347  
    2.43000n    1.9347  
    2.44000n    1.9347  
    2.45000n    1.9347  
    2.46000n    1.9347  
    2.47000n    1.9347  
    2.48000n    1.9347  
    2.49000n    1.9347  
    2.50000n    1.9347  
    2.51000n    1.9347  
    2.52000n    1.9347  
    2.53000n    1.9347  
    2.54000n    1.9347  
    2.55000n    1.9347  
    2.56000n    1.9347  
    2.57000n    1.9347  
    2.58000n    1.9347  
    2.59000n    1.9347  
    2.60000n    1.9347  
    2.61000n    1.9347  
    2.62000n    1.9347  
    2.63000n    1.9347  
    2.64000n    1.9347  
    2.65000n    1.9347  
    2.66000n    1.9347  
    2.67000n    1.9347  
    2.68000n    1.9347  
    2.69000n    1.9347  
    2.70000n    1.9347  
    2.71000n    1.9347  
    2.72000n    1.9347  
    2.73000n    1.9347  
    2.74000n    1.9347  
    2.75000n    1.9347  
    2.76000n    1.9347  
    2.77000n    1.9347  
    2.78000n    1.9347  
    2.79000n    1.9347  
    2.80000n    1.9347  
    2.81000n    1.9347  
    2.82000n    1.9347  
    2.83000n    1.9347  
    2.84000n    1.9347  
    2.85000n    1.9347  
    2.86000n    1.9347  
    2.87000n    1.9347  
    2.88000n    1.9347  
    2.89000n    1.9347  
    2.90000n    1.9347  
    2.91000n    1.9347  
    2.92000n    1.9347  
    2.93000n    1.9347  
    2.94000n    1.9347  
    2.95000n    1.9347  
    2.96000n    1.9347  
    2.97000n    1.9347  
    2.98000n    1.9347  
    2.99000n    1.9347  
    3.00000n    1.9347  
    3.01000n    1.9347  
    3.02000n    1.9347  
    3.03000n    1.9347  
    3.04000n    1.9347  
    3.05000n    1.9347  
    3.06000n    1.9347  
    3.07000n    1.9347  
    3.08000n    1.9347  
    3.09000n    1.9347  
    3.10000n    1.9347  
    3.11000n    1.9347  
    3.12000n    1.9347  
    3.13000n    1.9347  
    3.14000n    1.9347  
    3.15000n    1.9347  
    3.16000n    1.9347  
    3.17000n    1.9347  
    3.18000n    1.9347  
    3.19000n    1.9347  
    3.20000n    1.9347  
    3.21000n    1.9347  
    3.22000n    1.9347  
    3.23000n    1.9347  
    3.24000n    1.9347  
    3.25000n    1.9347  
    3.26000n    1.9347  
    3.27000n    1.9347  
    3.28000n    1.9347  
    3.29000n    1.9347  
    3.30000n    1.9347  
    3.31000n    1.9347  
    3.32000n    1.9347  
    3.33000n    1.9347  
    3.34000n    1.9347  
    3.35000n    1.9347  
    3.36000n    1.9347  
    3.37000n    1.9347  
    3.38000n    1.9347  
    3.39000n    1.9347  
    3.40000n    1.9347  
    3.41000n    1.9347  
    3.42000n    1.9347  
    3.43000n    1.9347  
    3.44000n    1.9347  
    3.45000n    1.9347  
    3.46000n    1.9347  
    3.47000n    1.9347  
    3.48000n    1.9347  
    3.49000n    1.9347  
    3.50000n    1.9347  
    3.51000n    1.9347  
    3.52000n    1.9347  
    3.53000n    1.9347  
    3.54000n    1.9347  
    3.55000n    1.9347  
    3.56000n    1.9347  
    3.57000n    1.9347  
    3.58000n    1.9347  
    3.59000n    1.9347  
    3.60000n    1.9347  
    3.61000n    1.9347  
    3.62000n    1.9347  
    3.63000n    1.9347  
    3.64000n    1.9347  
    3.65000n    1.9347  
    3.66000n    1.9347  
    3.67000n    1.9347  
    3.68000n    1.9347  
    3.69000n    1.9347  
    3.70000n    1.9347  
    3.71000n    1.9347  
    3.72000n    1.9347  
    3.73000n    1.9347  
    3.74000n    1.9347  
    3.75000n    1.9347  
    3.76000n    1.9347  
    3.77000n    1.9347  
    3.78000n    1.9347  
    3.79000n    1.9347  
    3.80000n    1.9347  
    3.81000n    1.9347  
    3.82000n    1.9347  
    3.83000n    1.9347  
    3.84000n    1.9347  
    3.85000n    1.9347  
    3.86000n    1.9347  
    3.87000n    1.9347  
    3.88000n    1.9347  
    3.89000n    1.9347  
    3.90000n    1.9347  
    3.91000n    1.9347  
    3.92000n    1.9347  
    3.93000n    1.9347  
    3.94000n    1.9347  
    3.95000n    1.9347  
    3.96000n    1.9347  
    3.97000n    1.9347  
    3.98000n    1.9347  
    3.99000n    1.9347  
    4.00000n    1.9347  
    4.01000n    1.9347  
    4.02000n    1.9347  
    4.03000n    1.9347  
    4.04000n    1.9347  
    4.05000n    1.9347  
    4.06000n    1.9347  
    4.07000n    1.9347  
    4.08000n    1.9347  
    4.09000n    1.9347  
    4.10000n    1.9347  
    4.11000n    1.9347  
    4.12000n    1.9347  
    4.13000n    1.9347  
    4.14000n    1.9347  
    4.15000n    1.9347  
    4.16000n    1.9347  
    4.17000n    1.9347  
    4.18000n    1.9347  
    4.19000n    1.9347  
    4.20000n    1.9347  
    4.21000n    1.9347  
    4.22000n    1.9347  
    4.23000n    1.9347  
    4.24000n    1.9347  
    4.25000n    1.9347  
    4.26000n    1.9347  
    4.27000n    1.9347  
    4.28000n    1.9347  
    4.29000n    1.9347  
    4.30000n    1.9347  
    4.31000n    1.9347  
    4.32000n    1.9347  
    4.33000n    1.9347  
    4.34000n    1.9347  
    4.35000n    1.9347  
    4.36000n    1.9347  
    4.37000n    1.9347  
    4.38000n    1.9347  
    4.39000n    1.9347  
    4.40000n    1.9347  
    4.41000n    1.9347  
    4.42000n    1.9347  
    4.43000n    1.9347  
    4.44000n    1.9347  
    4.45000n    1.9347  
    4.46000n    1.9347  
    4.47000n    1.9347  
    4.48000n    1.9347  
    4.49000n    1.9347  
    4.50000n    1.9347  
    4.51000n    1.9347  
    4.52000n    1.9347  
    4.53000n    1.9347  
    4.54000n    1.9347  
    4.55000n    1.9347  
    4.56000n    1.9347  
    4.57000n    1.9347  
    4.58000n    1.9347  
    4.59000n    1.9347  
    4.60000n    1.9347  
    4.61000n    1.9347  
    4.62000n    1.9347  
    4.63000n    1.9347  
    4.64000n    1.9347  
    4.65000n    1.9347  
    4.66000n    1.9347  
    4.67000n    1.9347  
    4.68000n    1.9347  
    4.69000n    1.9347  
    4.70000n    1.9347  
    4.71000n    1.9347  
    4.72000n    1.9347  
    4.73000n    1.9347  
    4.74000n    1.9347  
    4.75000n    1.9347  
    4.76000n    1.9347  
    4.77000n    1.9347  
    4.78000n    1.9347  
    4.79000n    1.9347  
    4.80000n    1.9347  
    4.81000n    1.9347  
    4.82000n    1.9347  
    4.83000n    1.9347  
    4.84000n    1.9347  
    4.85000n    1.9347  
    4.86000n    1.9347  
    4.87000n    1.9347  
    4.88000n    1.9347  
    4.89000n    1.9347  
    4.90000n    1.9347  
    4.91000n    1.9347  
    4.92000n    1.9347  
    4.93000n    1.9347  
    4.94000n    1.9347  
    4.95000n    1.9347  
    4.96000n    1.9347  
    4.97000n    1.9347  
    4.98000n    1.9347  
    4.99000n    1.9347  
    5.00000n    1.9347  
    5.01000n    1.9347  
    5.02000n    1.9347  
    5.03000n    1.9347  
    5.04000n    1.9347  
    5.05000n    1.9347  
    5.06000n    1.9347  
    5.07000n    1.9347  
    5.08000n    1.9347  
    5.09000n    1.9347  
    5.10000n    1.9347  
    5.11000n    1.9347  
    5.12000n    1.9347  
    5.13000n    1.9347  
    5.14000n    1.9347  
    5.15000n    1.9347  
    5.16000n    1.9347  
    5.17000n    1.9347  
    5.18000n    1.9347  
    5.19000n    1.9347  
    5.20000n    1.9347  
    5.21000n    1.9347  
    5.22000n    1.9347  
    5.23000n    1.9347  
    5.24000n    1.9347  
    5.25000n    1.9347  
    5.26000n    1.9347  
    5.27000n    1.9347  
    5.28000n    1.9347  
    5.29000n    1.9347  
    5.30000n    1.9347  
    5.31000n    1.9347  
    5.32000n    1.9347  
    5.33000n    1.9347  
    5.34000n    1.9347  
    5.35000n    1.9347  
    5.36000n    1.9347  
    5.37000n    1.9347  
    5.38000n    1.9347  
    5.39000n    1.9347  
    5.40000n    1.9347  
    5.41000n    1.9347  
    5.42000n    1.9347  
    5.43000n    1.9347  
    5.44000n    1.9347  
    5.45000n    1.9347  
    5.46000n    1.9347  
    5.47000n    1.9347  
    5.48000n    1.9347  
    5.49000n    1.9347  
    5.50000n    1.9347  
    5.51000n    1.9347  
    5.52000n    1.9347  
    5.53000n    1.9347  
    5.54000n    1.9347  
    5.55000n    1.9347  
    5.56000n    1.9347  
    5.57000n    1.9347  
    5.58000n    1.9347  
    5.59000n    1.9347  
[...]
   12.79000n    1.9607  
   12.80000n    1.9607  
   12.81000n    1.9607  
   12.82000n    1.9607  
   12.83000n    1.9607  
   12.84000n    1.9607  
   12.85000n    1.9607  
   12.86000n    1.9607  
   12.87000n    1.9607  
   12.88000n    1.9607  
   12.89000n    1.9607  
   12.90000n    1.9607  
   12.91000n    1.9607  
   12.92000n    1.9607  
   12.93000n    1.9607  
   12.94000n    1.9606  
   12.95000n    1.9606  
   12.96000n    1.9606  
   12.97000n    1.9606  
   12.98000n    1.9606  
   12.99000n    1.9606  
   13.00000n    1.9606  
   13.01000n    1.9606  
   13.02000n    1.9606  
   13.03000n    1.9606  
   13.04000n    1.9606  
   13.05000n    1.9606  
   13.06000n    1.9606  
   13.07000n    1.9606  
   13.08000n    1.9606  
   13.09000n    1.9606  
   13.10000n    1.9606  
   13.11000n    1.9606  
   13.12000n    1.9606  
   13.13000n    1.9606  
   13.14000n    1.9606  
   13.15000n    1.9606  
   13.16000n    1.9606  
   13.17000n    1.9606  
   13.18000n    1.9606  
   13.19000n    1.9606  
   13.20000n    1.9606  
   13.21000n    1.9606  
   13.22000n    1.9606  
   13.23000n    1.9606  
   13.24000n    1.9606  
   13.25000n    1.9606  
   13.26000n    1.9606  
   13.27000n    1.9606  
   13.28000n    1.9606  
   13.29000n    1.9606  
   13.30000n    1.9606  
   13.31000n    1.9606  
   13.32000n    1.9606  
   13.33000n    1.9606  
   13.34000n    1.9606  
   13.35000n    1.9606  
   13.36000n    1.9606  
   13.37000n    1.9606  
   13.38000n    1.9606  
   13.39000n    1.9606  
   13.40000n    1.9606  
   13.41000n    1.9606  
   13.42000n    1.9606  
   13.43000n    1.9606  
   13.44000n    1.9606  
   13.45000n    1.9606  
   13.46000n    1.9606  
   13.47000n    1.9606  
   13.48000n    1.9606  
   13.49000n    1.9606  
   13.50000n    1.9606  
   13.51000n    1.9606  
   13.52000n    1.9606  
   13.53000n    1.9606  
   13.54000n    1.9606  
   13.55000n    1.9606  
   13.56000n    1.9606  
   13.57000n    1.9606  
   13.58000n    1.9606  
   13.59000n    1.9606  
   13.60000n    1.9606  
   13.61000n    1.9606  
   13.62000n    1.9606  
   13.63000n    1.9606  
   13.64000n    1.9606  
   13.65000n    1.9606  
   13.66000n    1.9606  
   13.67000n    1.9606  
   13.68000n    1.9606  
   13.69000n    1.9606  
   13.70000n    1.9606  
   13.71000n    1.9606  
   13.72000n    1.9606  
   13.73000n    1.9606  
   13.74000n    1.9606  
   13.75000n    1.9606  
   13.76000n    1.9606  
   13.77000n    1.9606  
   13.78000n    1.9606  
   13.79000n    1.9606  
   13.80000n    1.9606  
   13.81000n    1.9606  
   13.82000n    1.9606  
   13.83000n    1.9606  
   13.84000n    1.9606  
   13.85000n    1.9606  
   13.86000n    1.9606  
   13.87000n    1.9606  
   13.88000n    1.9606  
   13.89000n    1.9606  
   13.90000n    1.9606  
   13.91000n    1.9606  
   13.92000n    1.9606  
   13.93000n    1.9606  
   13.94000n    1.9606  
   13.95000n    1.9606  
   13.96000n    1.9606  
   13.97000n    1.9606  
   13.98000n    1.9607  
   13.99000n    1.9607  
   14.00000n    1.9607  
   14.01000n    1.9607  
   14.02000n    1.9607  
   14.03000n    1.9607  
   14.04000n    1.9607  
   14.05000n    1.9607  
   14.06000n    1.9607  
   14.07000n    1.9607  
   14.08000n    1.9607  
   14.09000n    1.9607  
   14.10000n    1.9607  
   14.11000n    1.9607  
   14.12000n    1.9607  
   14.13000n    1.9607  
   14.14000n    1.9607  
   14.15000n    1.9607  
   14.16000n    1.9607  
   14.17000n    1.9607  
   14.18000n    1.9607  
   14.19000n    1.9607  
   14.20000n    1.9607  
   14.21000n    1.9607  
   14.22000n    1.9607  
   14.23000n    1.9607  
   14.24000n    1.9607  
   14.25000n    1.9607  
   14.26000n    1.9607  
   14.27000n    1.9607  
   14.28000n    1.9607  
   14.29000n    1.9607  
   14.30000n    1.9607  
   14.31000n    1.9607  
   14.32000n    1.9607  
   14.33000n    1.9607  
   14.34000n    1.9607  
   14.35000n    1.9607  
   14.36000n    1.9607  
   14.37000n    1.9607  
   14.38000n    1.9607  
   14.39000n    1.9607  
   14.40000n    1.9607  
   14.41000n    1.9607  
   14.42000n    1.9607  
   14.43000n    1.9607  
   14.44000n    1.9607  
   14.45000n    1.9607  
   14.46000n    1.9607  
   14.47000n    1.9607  
   14.48000n    1.9607  
   14.49000n    1.9607  
   14.50000n    1.9607  
   14.51000n    1.9607  
   14.52000n    1.9607  
   14.53000n    1.9607  
   14.54000n    1.9607  
   14.55000n    1.9607  
   14.56000n    1.9607  
   14.57000n    1.9607  
   14.58000n    1.9607  
   14.59000n    1.9607  
   14.60000n    1.9607  
   14.61000n    1.9607  
   14.62000n    1.9607  
   14.63000n    1.9607  
   14.64000n    1.9607  
   14.65000n    1.9607  
   14.66000n    1.9607  
   14.67000n    1.9607  
   14.68000n    1.9607  
   14.69000n    1.9607  
   14.70000n    1.9607  
   14.71000n    1.9607  
   14.72000n    1.9607  
   14.73000n    1.9607  
   14.74000n    1.9607  
   14.75000n    1.9607  
   14.76000n    1.9607  
   14.77000n    1.9607  
   14.78000n    1.9607  
   14.79000n    1.9607  
   14.80000n    1.9607  
   14.81000n    1.9607  
   14.82000n    1.9607  
   14.83000n    1.9607  
   14.84000n    1.9607  
   14.85000n    1.9607  
   14.86000n    1.9607  
   14.87000n    1.9607  
   14.88000n    1.9607  
   14.89000n    1.9607  
   14.90000n    1.9607  
   14.91000n    1.9607  
   14.92000n    1.9607  
   14.93000n    1.9606  
   14.94000n    1.9606  
   14.95000n    1.9606  
   14.96000n    1.9606  
   14.97000n    1.9606  
   14.98000n    1.9606  
   14.99000n    1.9606  
   15.00000n    1.9606  
   15.01000n    1.9606  
   15.02000n    1.9606  
   15.03000n    1.9606  
   15.04000n    1.9606  
   15.05000n    1.9606  
   15.06000n    1.9606  
   15.07000n    1.9606  
   15.08000n    1.9606  
   15.09000n    1.9606  
   15.10000n    1.9606  
   15.11000n    1.9606  
   15.12000n    1.9606  
   15.13000n    1.9606  
   15.14000n    1.9606  
   15.15000n    1.9606  
   15.16000n    1.9606  
   15.17000n    1.9606  
   15.18000n    1.9606  
   15.19000n    1.9606  
   15.20000n    1.9606  
   15.21000n    1.9606  
   15.22000n    1.9606  
   15.23000n    1.9606  
   15.24000n    1.9606  
   15.25000n    1.9606  
   15.26000n    1.9606  
   15.27000n    1.9606  
   15.28000n    1.9606  
   15.29000n    1.9606  
   15.30000n    1.9606  
   15.31000n    1.9606  
   15.32000n    1.9606  
   15.33000n    1.9606  
   15.34000n    1.9606  
   15.35000n    1.9606  
   15.36000n    1.9606  
   15.37000n    1.9606  
   15.38000n    1.9606  
   15.39000n    1.9606  
   15.40000n    1.9606  
   15.41000n    1.9606  
   15.42000n    1.9606  
   15.43000n    1.9606  
   15.44000n    1.9606  
   15.45000n    1.9606  
   15.46000n    1.9606  
   15.47000n    1.9606  
   15.48000n    1.9606  
   15.49000n    1.9606  
   15.50000n    1.9606  
   15.51000n    1.9606  
   15.52000n    1.9606  
   15.53000n    1.9606  
   15.54000n    1.9606  
   15.55000n    1.9606  
   15.56000n    1.9606  
   15.57000n    1.9606  
   15.58000n    1.9606  
   15.59000n    1.9606  
   15.60000n    1.9606  
   15.61000n    1.9606  
   15.62000n    1.9606  
   15.63000n    1.9606  
   15.64000n    1.9606  
   15.65000n    1.9606  
   15.66000n    1.9606  
   15.67000n    1.9606  
   15.68000n    1.9606  
   15.69000n    1.9606  
   15.70000n    1.9606  
   15.71000n    1.9606  
   15.72000n    1.9606  
   15.73000n    1.9606  
   15.74000n    1.9606  
   15.75000n    1.9606  
   15.76000n    1.9606  
   15.77000n    1.9606  
   15.78000n    1.9606  
   15.79000n    1.9606  
   15.80000n    1.9606  
   15.81000n    1.9606  
   15.82000n    1.9606  
   15.83000n    1.9606  
   15.84000n    1.9606  
   15.85000n    1.9606  
   15.86000n    1.9606  
   15.87000n    1.9606  
   15.88000n    1.9606  
   15.89000n    1.9606  
   15.90000n    1.9606  
   15.91000n    1.9606  
   15.92000n    1.9606  
   15.93000n    1.9606  
   15.94000n    1.9606  
   15.95000n    1.9606  
   15.96000n    1.9606  
   15.97000n    1.9606  
   15.98000n    1.9606  
   15.99000n    1.9607  
   16.00000n    1.9607  
   16.01000n    1.9607  
   16.02000n    1.9607  
   16.03000n    1.9607  
   16.04000n    1.9607  
   16.05000n    1.9607  
   16.06000n    1.9607  
   16.07000n    1.9607  
   16.08000n    1.9607  
   16.09000n    1.9607  
   16.10000n    1.9607  
   16.11000n    1.9607  
   16.12000n    1.9607  
   16.13000n    1.9607  
   16.14000n    1.9607  
   16.15000n    1.9607  
   16.16000n    1.9607  
   16.17000n    1.9607  
   16.18000n    1.9607  
   16.19000n    1.9607  
   16.20000n    1.9607  
   16.21000n    1.9607  
   16.22000n    1.9607  
   16.23000n    1.9607  
   16.24000n    1.9607  
   16.25000n    1.9607  
   16.26000n    1.9607  
   16.27000n    1.9607  
   16.28000n    1.9607  
   16.29000n    1.9607  
   16.30000n    1.9607  
   16.31000n    1.9607  
   16.32000n    1.9607  
   16.33000n    1.9607  
   16.34000n    1.9607  
   16.35000n    1.9607  
   16.36000n    1.9607  
   16.37000n    1.9607  
   16.38000n    1.9607  
   16.39000n    1.9607  
   16.40000n    1.9607  
   16.41000n    1.9607  
   16.42000n    1.9607  
   16.43000n    1.9607  
   16.44000n    1.9607  
   16.45000n    1.9607  
   16.46000n    1.9607  
   16.47000n    1.9607  
   16.48000n    1.9607  
   16.49000n    1.9607  
   16.50000n    1.9607  
   16.51000n    1.9607  
   16.52000n    1.9607  
   16.53000n    1.9607  
   16.54000n    1.9607  
   16.55000n    1.9607  
   16.56000n    1.9607  
   16.57000n    1.9607  
   16.58000n    1.9607  
   16.59000n    1.9607  
   16.60000n    1.9607  
   16.61000n    1.9607  
   16.62000n    1.9607  
   16.63000n    1.9607  
   16.64000n    1.9607  
   16.65000n    1.9607  
   16.66000n    1.9607  
   16.67000n    1.9607  
   16.68000n    1.9607  
   16.69000n    1.9607  
   16.70000n    1.9607  
   16.71000n    1.9607  
   16.72000n    1.9607  
   16.73000n    1.9607  
   16.74000n    1.9607  
   16.75000n    1.9607  
   16.76000n    1.9607  
   16.77000n    1.9607  
   16.78000n    1.9607  
   16.79000n    1.9607  
   16.80000n    1.9607  
   16.81000n    1.9607  
   16.82000n    1.9607  
   16.83000n    1.9607  
   16.84000n    1.9607  
   16.85000n    1.9607  
   16.86000n    1.9607  
   16.87000n    1.9607  
   16.88000n    1.9607  
   16.89000n    1.9607  
   16.90000n    1.9607  
   16.91000n    1.9607  
   16.92000n    1.9607  
   16.93000n    1.9606  
   16.94000n    1.9606  
   16.95000n    1.9606  
   16.96000n    1.9606  
   16.97000n    1.9606  
   16.98000n    1.9606  
   16.99000n    1.9606  
   17.00000n    1.9606  
   17.01000n    1.9606  
   17.02000n    1.9606  
   17.03000n    1.9606  
   17.04000n    1.9606  
   17.05000n    1.9606  
   17.06000n    1.9606  
   17.07000n    1.9606  
   17.08000n    1.9606  
   17.09000n    1.9606  
   17.10000n    1.9606  
   17.11000n    1.9606  
   17.12000n    1.9606  
   17.13000n    1.9606  
   17.14000n    1.9606  
   17.15000n    1.9606  
   17.16000n    1.9606  
   17.17000n    1.9606  
   17.18000n    1.9606  
   17.19000n    1.9606  
   17.20000n    1.9606  
   17.21000n    1.9606  
   17.22000n    1.9606  
   17.23000n    1.9606  
   17.24000n    1.9606  
   17.25000n    1.9606  
   17.26000n    1.9606  
   17.27000n    1.9606  
   17.28000n    1.9606  
   17.29000n    1.9606  
   17.30000n    1.9606  
   17.31000n    1.9606  
   17.32000n    1.9606  
   17.33000n    1.9606  
   17.34000n    1.9606  
   17.35000n    1.9606  
   17.36000n    1.9606  
   17.37000n    1.9606  
   17.38000n    1.9606  
   17.39000n    1.9606  
   17.40000n    1.9606  
   17.41000n    1.9606  
   17.42000n    1.9606  
   17.43000n    1.9606  
   17.44000n    1.9606  
   17.45000n    1.9606  
   17.46000n    1.9606  
   17.47000n    1.9606  
   17.48000n    1.9606  
   17.49000n    1.9606  
   17.50000n    1.9606  
   17.51000n    1.9606  
   17.52000n    1.9606  
   17.53000n    1.9606  
   17.54000n    1.9606  
   17.55000n    1.9606  
   17.56000n    1.9606  
   17.57000n    1.9606  
   17.58000n    1.9606  
   17.59000n    1.9606  
   17.60000n    1.9606  
   17.61000n    1.9606  
   17.62000n    1.9606  
   17.63000n    1.9606  
   17.64000n    1.9606  
   17.65000n    1.9606  
   17.66000n    1.9606  
   17.67000n    1.9606  
   17.68000n    1.9606  
   17.69000n    1.9606  
   17.70000n    1.9606  
   17.71000n    1.9606  
   17.72000n    1.9606  
   17.73000n    1.9606  
   17.74000n    1.9606  
   17.75000n    1.9606  
   17.76000n    1.9606  
   17.77000n    1.9606  
   17.78000n    1.9606  
   17.79000n    1.9606  
   17.80000n    1.9606  
   17.81000n    1.9606  
   17.82000n    1.9606  
   17.83000n    1.9606  
   17.84000n    1.9606  
   17.85000n    1.9606  
   17.86000n    1.9606  
   17.87000n    1.9606  
   17.88000n    1.9606  
   17.89000n    1.9606  
   17.90000n    1.9606  
   17.91000n    1.9606  
   17.92000n    1.9606  
   17.93000n    1.9606  
   17.94000n    1.9606  
   17.95000n    1.9606  
   17.96000n    1.9606  
   17.97000n    1.9606  
   17.98000n    1.9606  
   17.99000n    1.9606  
   18.00000n    1.9606  
   18.01000n    1.9606  
   18.02000n    1.9606  
   18.03000n    1.9606  
   18.04000n    1.9606  
   18.05000n    1.9606  
   18.06000n    1.9606  
   18.07000n    1.9606  
   18.08000n    1.9606  
   18.09000n    1.9606  
   18.10000n    1.9606  
   18.11000n    1.9606  
   18.12000n    1.9606  
   18.13000n    1.9606  
   18.14000n    1.9606  
   18.15000n    1.9606  
   18.16000n    1.9606  
   18.17000n    1.9606  
   18.18000n    1.9606  
   18.19000n    1.9606  
   18.20000n    1.9606  
   18.21000n    1.9606  
   18.22000n    1.9606  
   18.23000n    1.9606  
   18.24000n    1.9606  
   18.25000n    1.9606  
   18.26000n    1.9606  
   18.27000n    1.9606  
   18.28000n    1.9606  
   18.29000n    1.9606  
   18.30000n    1.9606  
   18.31000n    1.9606  
   18.32000n    1.9606  
   18.33000n    1.9606  
   18.34000n    1.9606  
   18.35000n    1.9606  
   18.36000n    1.9606  
   18.37000n    1.9606  
   18.38000n    1.9606  
   18.39000n    1.9606  
   18.40000n    1.9606  
   18.41000n    1.9606  
   18.42000n    1.9606  
   18.43000n    1.9606  
   18.44000n    1.9606  
   18.45000n    1.9606  
   18.46000n    1.9606  
   18.47000n    1.9606  
   18.48000n    1.9606  
   18.49000n    1.9606  
   18.50000n    1.9606  
   18.51000n    1.9606  
   18.52000n    1.9606  
   18.53000n    1.9606  
   18.54000n    1.9606  
   18.55000n    1.9606  
   18.56000n    1.9606  
   18.57000n    1.9606  
   18.58000n    1.9606  
   18.59000n    1.9606  
   18.60000n    1.9606  
   18.61000n    1.9606  
   18.62000n    1.9606  
   18.63000n    1.9606  
   18.64000n    1.9606  
   18.65000n    1.9606  
   18.66000n    1.9606  
   18.67000n    1.9606  
   18.68000n    1.9606  
   18.69000n    1.9606  
   18.70000n    1.9606  
   18.71000n    1.9606  
   18.72000n    1.9606  
   18.73000n    1.9606  
   18.74000n    1.9607  
   18.75000n    1.9607  
   18.76000n    1.9607  
   18.77000n    1.9607  
   18.78000n    1.9607  
   18.79000n    1.9607  
   18.80000n    1.9607  
   18.81000n    1.9607  
   18.82000n    1.9607  
   18.83000n    1.9607  
   18.84000n    1.9607  
   18.85000n    1.9607  
   18.86000n    1.9607  
   18.87000n    1.9607  
   18.88000n    1.9607  
   18.89000n    1.9607  
   18.90000n    1.9607  
   18.91000n    1.9607  
   18.92000n    1.9607  
   18.93000n    1.9607  
   18.94000n    1.9607  
   18.95000n    1.9607  
   18.96000n    1.9607  
   18.97000n    1.9607  
   18.98000n    1.9607  
   18.99000n    1.9607  
   19.00000n    1.9607  
   19.01000n    1.9607  
   19.02000n    1.9607  
   19.03000n    1.9607  
   19.04000n    1.9607  
   19.05000n    1.9607  
   19.06000n    1.9607  
   19.07000n    1.9607  
   19.08000n    1.9607  
   19.09000n    1.9607  
   19.10000n    1.9607  
   19.11000n    1.9607  
   19.12000n    1.9607  
   19.13000n    1.9607  
   19.14000n    1.9607  
   19.15000n    1.9607  
   19.16000n    1.9607  
   19.17000n    1.9607  
   19.18000n    1.9607  
   19.19000n    1.9607  
   19.20000n    1.9607  
   19.21000n    1.9607  
   19.22000n    1.9607  
   19.23000n    1.9607  
   19.24000n    1.9607  
   19.25000n    1.9607  
   19.26000n    1.9607  
   19.27000n    1.9607  
   19.28000n    1.9607  
   19.29000n    1.9607  
   19.30000n    1.9607  
   19.31000n    1.9607  
   19.32000n    1.9607  
   19.33000n    1.9607  
   19.34000n    1.9607  
   19.35000n    1.9607  
   19.36000n    1.9607  
   19.37000n    1.9607  
   19.38000n    1.9607  
   19.39000n    1.9607  
   19.40000n    1.9607  
   19.41000n    1.9607  
   19.42000n    1.9607  
   19.43000n    1.9607  
   19.44000n    1.9607  
   19.45000n    1.9607  
   19.46000n    1.9607  
   19.47000n    1.9607  
   19.48000n    1.9607  
   19.49000n    1.9607  
   19.50000n    1.9607  
   19.51000n    1.9607  
   19.52000n    1.9607  
   19.53000n    1.9607  
   19.54000n    1.9607  
   19.55000n    1.9607  
   19.56000n    1.9607  
   19.57000n    1.9607  
   19.58000n    1.9607  
   19.59000n    1.9607  
   19.60000n    1.9607  
   19.61000n    1.9607  
   19.62000n    1.9607  
   19.63000n    1.9607  
   19.64000n    1.9607  
   19.65000n    1.9607  
   19.66000n    1.9607  
   19.67000n    1.9607  
   19.68000n    1.9607  
   19.69000n    1.9607  
   19.70000n    1.9607  
   19.71000n    1.9607  
   19.72000n    1.9607  
   19.73000n    1.9607  
   19.74000n    1.9607  
   19.75000n    1.9607  
   19.76000n    1.9607  
   19.77000n    1.9607  
   19.78000n    1.9607  
   19.79000n    1.9607  
   19.80000n    1.9607  
   19.81000n    1.9607  
   19.82000n    1.9607  
   19.83000n    1.9607  
   19.84000n    1.9607  
   19.85000n    1.9607  
   19.86000n    1.9607  
   19.87000n    1.9607  
   19.88000n    1.9607  
   19.89000n    1.9607  
   19.90000n    1.9607  
   19.91000n    1.9607  
   19.92000n    1.9607  
   19.93000n    1.9607  
   19.94000n    1.9607  
   19.95000n    1.9607  
   19.96000n    1.9607  
   19.97000n    1.9607  
   19.98000n    1.9607  
   19.99000n    1.9607  
   20.00000n    1.9607  
y

          ***** job concluded
 ******  
 *this file will describe the hspice of lab 2

 ****** job statistics summary tnom=  25.000 temp=  25.000 ******
  
  
 ******  Machine Information  ******
 CPU:
 model name	: Intel(R) Xeon(R) CPU E5-2699 v3 @ 2.30GHz
 cpu MHz	: 2299.998
  
 OS:
 Linux version 3.10.0-693.2.2.el7.x86_64 (builder@kbuilder.dev.centos.org) (gcc version 4.8.5 20150623 (Red Hat 4.8.5-16) (GCC) ) #1 SMP Tue Sep 12 22:26:13 UTC 2017


  ******  HSPICE Threads Information  ******

  Command Line Threads Count :     1
  Available CPU Count        :     8
  Actual Threads Count       :     1


  ******  Circuit Statistics  ******
  # nodes       =     344 # elements   =     173
  # resistors   =      54 # capacitors =      54 # inductors   =       0
  # mutual_inds =       0 # vccs       =       0 # vcvs        =       0
  # cccs        =       0 # ccvs       =       0 # volt_srcs   =       1
  # curr_srcs   =       0 # diodes     =       0 # bjts        =       0
  # jfets       =       0 # mosfets    =      64 # U elements  =       0
  # T elements  =       0 # W elements =       0 # B elements  =       0
  # S elements  =       0 # P elements =       0 # va device   =       0
  # vector_srcs =       0 # N elements =       0


  ******  Runtime Statistics (seconds)  ******

  analysis           time    # points   tot. iter  conv.iter
  op point           0.00           1           3
  transient          0.04        2001         136          52 rev=         1
  readin             0.01
  errchk             0.01
  setup              0.01
  output             0.00


           peak memory used        256.16 megabytes
           total cpu time            0.50 seconds
           total elapsed time        0.40 seconds
           job started at     17:30:54 03/04/2019
           job ended   at     17:30:54 03/04/2019


 lic: Release hspice token(s) 
 lic: total license checkout elapse time:        0.13(s)
