 ****** HSPICE -- L-2016.06-SP2-2 linux64 (Jan 24 2017) ******                  
  Copyright (c) 1986 - 2019 by Synopsys, Inc. All Rights Reserved.              
  This software and the associated documentation are proprietary
  to Synopsys, Inc. This software may only be used in accordance
  with the terms and conditions of a written license agreement with
  Synopsys, Inc. All other use, reproduction, or distribution of
  this software is strictly prohibited.
  Input File: Lab2.sp                                                           
  Command line options: /Linux/sw/request/synopsys/hspice_vL-2016.06-SP2-2/hspice/linux64/hspice -i Lab2.sp -o Lab2
 lic:  
 lic: FLEXlm: v11.2.1 
 lic: USER:   vprabhu              HOSTNAME: lcs-vc-linux-01 
 lic: HOSTID: 005056bc7b03         PID:      17371 
 lic: Using FLEXlm license file: 
 lic: 27006@lcs-vc-license2.ad.syr.edu 
 lic: Checkout 1 hspice 
 lic: License/Maintenance for hspice will expire on 17-mar-2019/2017.12 
 lic: 1(in_use)/75(total) FLOATING license(s) on SERVER 27006@lcs-vc-license2.ad.syr.edu 
 lic:   
  **info** (Lab2.sp:5) DC voltage reset to initial transient source value in source 0:vs. new dc=0.0000D+00
  **warning** (Lab2.sp:127) Unable to find referenced node vs; Output variable ignored. Specify a valid node.
  
      
 *****************************************************************
 ******  option summary
 ******
 runlvl  = 3         bypass  = 2.0000    
 **info** dc convergence successful at Newton-Raphson method 
1****** HSPICE -- L-2016.06-SP2-2 linux64 (Jan 24 2017) ******                  
 ******  
 *this file will describe the hspice of lab 2

 ****** operating point information tnom=  25.000 temp=  25.000 ******
 ****** operating point status is voltage   simulation time is     0.     
    node    =voltage      node    =voltage      node    =voltage

 +0:1       =   0.      0:2       =   0.      0:3       =   0.     
 +0:4       =   0.      0:5       =   0.      0:6       =   0.     
 +0:7       =   0.      0:8       =   0.      0:9       =   0.     
 +0:10      =   0.      0:11      =   0.      0:12      =   0.     
 +0:13      =   0.      0:14      =   0.      0:15      =   0.     
 +0:16      =   0.      0:17      =   0.      0:18      =   0.     
 +0:19      =   0.      0:20      =   0.      0:21      =   0.     
 +0:22      =   0.      0:23      =   0.      0:24      =   0.     
 +0:25      =   0.      0:26      =   0.      0:27      =   0.     
 +0:28      =   0.      0:29      =   0.      0:30      =   0.     
 +0:31      =   0.      0:32      =   0.      0:33      =   0.     
 +0:34      =   0.      0:35      =   0.      0:36      =   0.     
 +0:37      =   0.      0:38      =   0.      0:39      =   0.     
 +0:40      =   0.      0:41      =   0.      0:42      =   0.     
 +0:43      =   0.      0:44      =   0.      0:45      =   0.     
 +0:46      =   0.      0:47      =   0.      0:48      =   0.     
 +0:49      =   0.      0:50      =   0.      0:51      =   0.     
 +0:52      =   0.      0:53      =   0.      0:54      =   0.     
 +0:vin     =   0.     

 ******
 *this file will describe the hspice of lab 2

 ****** transient analysis tnom=  25.000 temp=  25.000 ******
x

 time         voltage   
             7          
    0.          0.      
   10.00000p    0.      
   20.00000p    0.      
   30.00000p    0.      
   40.00000p    0.      
   50.00000p    0.      
   60.00000p    0.      
   70.00000p    0.      
   80.00000p    0.      
   90.00000p    0.      
  100.00000p    0.      
  110.00000p    0.      
  120.00000p    0.      
  130.00000p    0.      
  140.00000p    0.      
  150.00000p    0.      
  160.00000p    0.      
  170.00000p    0.      
  180.00000p    0.      
  190.00000p    0.      
  200.00000p    0.      
  210.00000p    0.      
  220.00000p    0.      
  230.00000p    0.      
  240.00000p    0.      
  250.00000p    0.      
  260.00000p    0.      
  270.00000p    0.      
  280.00000p    0.      
  290.00000p    0.      
  300.00000p    0.      
  310.00000p    0.      
  320.00000p    0.      
  330.00000p    0.      
  340.00000p    0.      
  350.00000p    0.      
  360.00000p    0.      
  370.00000p    0.      
  380.00000p    0.      
  390.00000p    0.      
  400.00000p    0.      
  410.00000p    0.      
  420.00000p    0.      
  430.00000p    0.      
  440.00000p    0.      
  450.00000p    0.      
  460.00000p    0.      
  470.00000p    0.      
  480.00000p    0.      
  490.00000p    0.      
  500.00000p    0.      
  510.00000p    0.      
  520.00000p    0.      
  530.00000p    0.      
  540.00000p    0.      
  550.00000p    0.      
  560.00000p    0.      
  570.00000p    0.      
  580.00000p    0.      
  590.00000p    0.      
  600.00000p    0.      
  610.00000p    0.      
  620.00000p    0.      
  630.00000p    0.      
  640.00000p    0.      
  650.00000p    0.      
  660.00000p    0.      
  670.00000p    0.      
  680.00000p    0.      
  690.00000p    0.      
  700.00000p    0.      
  710.00000p    0.      
  720.00000p    0.      
  730.00000p    0.      
  740.00000p    0.      
  750.00000p    0.      
  760.00000p    0.      
  770.00000p    0.      
  780.00000p    0.      
  790.00000p    0.      
  800.00000p    0.      
  810.00000p    0.      
  820.00000p    0.      
  830.00000p    0.      
  840.00000p    0.      
  850.00000p    0.      
  860.00000p    0.      
  870.00000p    0.      
  880.00000p    0.      
  890.00000p    0.      
  900.00000p    0.      
  910.00000p    0.      
  920.00000p    0.      
  930.00000p    0.      
  940.00000p    0.      
  950.00000p    0.      
  960.00000p    0.      
  970.00000p    0.      
  980.00000p    0.      
  990.00000p    0.      
    1.00000n    0.      
    1.01000n   71.9207m 
    1.02000n  359.4392m 
    1.03000n  631.7691m 
    1.04000n  815.5739m 
    1.05000n  947.8703m 
    1.06000n    1.0431  
    1.07000n    1.1328  
    1.08000n    1.2056  
    1.09000n    1.2784  
    1.10000n    1.3463  
    1.11000n    1.4104  
    1.12000n    1.4744  
    1.13000n    1.5384  
    1.14000n    1.5976  
    1.15000n    1.6536  
    1.16000n    1.7095  
    1.17000n    1.7655  
    1.18000n    1.8214  
    1.19000n    1.8774  
    1.20000n    1.9290  
    1.21000n    1.9756  
    1.22000n    2.0222  
    1.23000n    2.0688  
    1.24000n    2.1153  
    1.25000n    2.1619  
    1.26000n    2.2085  
    1.27000n    2.2551  
    1.28000n    2.2942  
    1.29000n    2.3314  
    1.30000n    2.3686  
    1.31000n    2.4057  
    1.32000n    2.4429  
    1.33000n    2.4801  
    1.34000n    2.5173  
    1.35000n    2.5544  
    1.36000n    2.5916  
    1.37000n    2.6254  
    1.38000n    2.6536  
    1.39000n    2.6817  
    1.40000n    2.7098  
    1.41000n    2.7379  
    1.42000n    2.7660  
    1.43000n    2.7941  
    1.44000n    2.8222  
    1.45000n    2.8503  
    1.46000n    2.8784  
    1.47000n    2.9065  
    1.48000n    2.9346  
    1.49000n    2.9596  
    1.50000n    2.9794  
    1.51000n    2.9991  
    1.52000n    3.0189  
    1.53000n    3.0387  
    1.54000n    3.0585  
    1.55000n    3.0783  
    1.56000n    3.0980  
    1.57000n    3.1178  
    1.58000n    3.1376  
    1.59000n    3.1574  
    1.60000n    3.1772  
    1.61000n    3.1969  
    1.62000n    3.2167  
    1.63000n    3.2365  
    1.64000n    3.2552  
    1.65000n    3.2682  
    1.66000n    3.2813  
    1.67000n    3.2943  
    1.68000n    3.3073  
    1.69000n    3.3203  
    1.70000n    3.3333  
    1.71000n    3.3463  
    1.72000n    3.3594  
    1.73000n    3.3724  
    1.74000n    3.3854  
    1.75000n    3.3984  
    1.76000n    3.4114  
    1.77000n    3.4245  
    1.78000n    3.4375  
    1.79000n    3.4505  
    1.80000n    3.4635  
    1.81000n    3.4765  
    1.82000n    3.4855  
    1.83000n    3.4935  
    1.84000n    3.5015  
    1.85000n    3.5095  
    1.86000n    3.5175  
    1.87000n    3.5255  
    1.88000n    3.5335  
    1.89000n    3.5415  
    1.90000n    3.5495  
    1.91000n    3.5575  
    1.92000n    3.5655  
    1.93000n    3.5735  
    1.94000n    3.5815  
    1.95000n    3.5896  
    1.96000n    3.5976  
    1.97000n    3.6056  
    1.98000n    3.6136  
    1.99000n    3.6216  
    2.00000n    3.6296  
    2.01000n    3.6376  
    2.02000n    3.6456  
    2.03000n    3.6536  
    2.04000n    3.6588  
    2.05000n    3.6633  
    2.06000n    3.6679  
    2.07000n    3.6724  
    2.08000n    3.6769  
    2.09000n    3.6815  
    2.10000n    3.6860  
    2.11000n    3.6905  
    2.12000n    3.6951  
    2.13000n    3.6996  
    2.14000n    3.7041  
    2.15000n    3.7087  
    2.16000n    3.7132  
    2.17000n    3.7178  
    2.18000n    3.7223  
    2.19000n    3.7268  
    2.20000n    3.7314  
    2.21000n    3.7359  
    2.22000n    3.7404  
    2.23000n    3.7450  
    2.24000n    3.7495  
    2.25000n    3.7540  
    2.26000n    3.7586  
    2.27000n    3.7631  
    2.28000n    3.7677  
    2.29000n    3.7713  
    2.30000n    3.7738  
    2.31000n    3.7762  
    2.32000n    3.7787  
    2.33000n    3.7812  
    2.34000n    3.7836  
    2.35000n    3.7861  
    2.36000n    3.7886  
    2.37000n    3.7910  
    2.38000n    3.7935  
    2.39000n    3.7960  
    2.40000n    3.7984  
    2.41000n    3.8009  
    2.42000n    3.8034  
    2.43000n    3.8058  
    2.44000n    3.8083  
    2.45000n    3.8108  
    2.46000n    3.8132  
    2.47000n    3.8157  
    2.48000n    3.8182  
    2.49000n    3.8206  
    2.50000n    3.8231  
    2.51000n    3.8256  
    2.52000n    3.8280  
    2.53000n    3.8305  
    2.54000n    3.8330  
    2.55000n    3.8354  
    2.56000n    3.8379  
    2.57000n    3.8404  
    2.58000n    3.8427  
    2.59000n    3.8441  
    2.60000n    3.8454  
    2.61000n    3.8467  
    2.62000n    3.8480  
    2.63000n    3.8494  
    2.64000n    3.8507  
    2.65000n    3.8520  
    2.66000n    3.8533  
    2.67000n    3.8547  
    2.68000n    3.8560  
    2.69000n    3.8573  
    2.70000n    3.8586  
    2.71000n    3.8600  
    2.72000n    3.8613  
    2.73000n    3.8626  
    2.74000n    3.8639  
    2.75000n    3.8653  
    2.76000n    3.8666  
    2.77000n    3.8679  
    2.78000n    3.8692  
    2.79000n    3.8706  
    2.80000n    3.8719  
    2.81000n    3.8732  
    2.82000n    3.8745  
    2.83000n    3.8758  
    2.84000n    3.8772  
    2.85000n    3.8785  
    2.86000n    3.8798  
    2.87000n    3.8811  
    2.88000n    3.8825  
    2.89000n    3.8838  
    2.90000n    3.8851  
    2.91000n    3.8864  
    2.92000n    3.8878  
    2.93000n    3.8886  
    2.94000n    3.8893  
    2.95000n    3.8900  
    2.96000n    3.8907  
    2.97000n    3.8915  
    2.98000n    3.8922  
    2.99000n    3.8929  
    3.00000n    3.8937  
    3.01000n    3.8944  
    3.02000n    3.8951  
    3.03000n    3.8958  
    3.04000n    3.8966  
    3.05000n    3.8973  
    3.06000n    3.8980  
    3.07000n    3.8987  
    3.08000n    3.8995  
    3.09000n    3.9002  
    3.10000n    3.9009  
    3.11000n    3.9016  
    3.12000n    3.9024  
    3.13000n    3.9031  
    3.14000n    3.9038  
    3.15000n    3.9046  
    3.16000n    3.9053  
    3.17000n    3.9060  
    3.18000n    3.9067  
    3.19000n    3.9075  
    3.20000n    3.9082  
    3.21000n    3.9089  
    3.22000n    3.9096  
    3.23000n    3.9104  
    3.24000n    3.9111  
    3.25000n    3.9118  
    3.26000n    3.9126  
    3.27000n    3.9133  
    3.28000n    3.9140  
    3.29000n    3.9147  
    3.30000n    3.9155  
    3.31000n    3.9162  
    3.32000n    3.9169  
    3.33000n    3.9176  
    3.34000n    3.9181  
    3.35000n    3.9185  
    3.36000n    3.9189  
    3.37000n    3.9194  
    3.38000n    3.9198  
    3.39000n    3.9202  
    3.40000n    3.9207  
    3.41000n    3.9211  
    3.42000n    3.9215  
    3.43000n    3.9219  
    3.44000n    3.9224  
    3.45000n    3.9228  
    3.46000n    3.9232  
    3.47000n    3.9237  
    3.48000n    3.9241  
    3.49000n    3.9245  
    3.50000n    3.9250  
    3.51000n    3.9254  
    3.52000n    3.9258  
    3.53000n    3.9263  
    3.54000n    3.9267  
    3.55000n    3.9271  
    3.56000n    3.9275  
    3.57000n    3.9280  
    3.58000n    3.9284  
    3.59000n    3.9288  
    3.60000n    3.9293  
    3.61000n    3.9297  
    3.62000n    3.9301  
    3.63000n    3.9306  
    3.64000n    3.9310  
    3.65000n    3.9314  
    3.66000n    3.9318  
    3.67000n    3.9323  
    3.68000n    3.9327  
    3.69000n    3.9331  
    3.70000n    3.9336  
    3.71000n    3.9340  
    3.72000n    3.9344  
    3.73000n    3.9349  
    3.74000n    3.9353  
    3.75000n    3.9357  
    3.76000n    3.9361  
    3.77000n    3.9366  
    3.78000n    3.9370  
    3.79000n    3.9374  
    3.80000n    3.9377  
    3.81000n    3.9379  
    3.82000n    3.9382  
    3.83000n    3.9385  
    3.84000n    3.9388  
    3.85000n    3.9391  
    3.86000n    3.9393  
    3.87000n    3.9396  
    3.88000n    3.9399  
    3.89000n    3.9402  
    3.90000n    3.9405  
    3.91000n    3.9408  
    3.92000n    3.9410  
    3.93000n    3.9413  
    3.94000n    3.9416  
    3.95000n    3.9419  
    3.96000n    3.9422  
    3.97000n    3.9424  
    3.98000n    3.9427  
    3.99000n    3.9430  
    4.00000n    3.9433  
    4.01000n    3.9436  
    4.02000n    3.9439  
    4.03000n    3.9441  
    4.04000n    3.9444  
    4.05000n    3.9447  
    4.06000n    3.9450  
    4.07000n    3.9453  
    4.08000n    3.9455  
    4.09000n    3.9458  
    4.10000n    3.9461  
    4.11000n    3.9464  
    4.12000n    3.9467  
    4.13000n    3.9469  
    4.14000n    3.9472  
    4.15000n    3.9475  
    4.16000n    3.9478  
    4.17000n    3.9481  
    4.18000n    3.9484  
    4.19000n    3.9486  
    4.20000n    3.9489  
    4.21000n    3.9492  
    4.22000n    3.9495  
    4.23000n    3.9498  
    4.24000n    3.9500  
    4.25000n    3.9503  
    4.26000n    3.9506  
    4.27000n    3.9509  
    4.28000n    3.9512  
    4.29000n    3.9514  
    4.30000n    3.9517  
    4.31000n    3.9519  
    4.32000n    3.9521  
    4.33000n    3.9523  
    4.34000n    3.9525  
    4.35000n    3.9527  
    4.36000n    3.9529  
    4.37000n    3.9531  
    4.38000n    3.9533  
    4.39000n    3.9535  
    4.40000n    3.9537  
    4.41000n    3.9539  
    4.42000n    3.9541  
    4.43000n    3.9543  
    4.44000n    3.9544  
    4.45000n    3.9546  
    4.46000n    3.9548  
    4.47000n    3.9550  
    4.48000n    3.9552  
    4.49000n    3.9554  
    4.50000n    3.9556  
    4.51000n    3.9558  
    4.52000n    3.9560  
    4.53000n    3.9562  
    4.54000n    3.9564  
    4.55000n    3.9566  
    4.56000n    3.9568  
    4.57000n    3.9570  
    4.58000n    3.9572  
    4.59000n    3.9574  
    4.60000n    3.9576  
    4.61000n    3.9578  
    4.62000n    3.9580  
    4.63000n    3.9582  
    4.64000n    3.9584  
    4.65000n    3.9586  
    4.66000n    3.9588  
    4.67000n    3.9590  
    4.68000n    3.9591  
    4.69000n    3.9593  
    4.70000n    3.9595  
    4.71000n    3.9597  
    4.72000n    3.9599  
    4.73000n    3.9601  
    4.74000n    3.9603  
    4.75000n    3.9605  
    4.76000n    3.9607  
    4.77000n    3.9609  
    4.78000n    3.9611  
    4.79000n    3.9613  
    4.80000n    3.9615  
    4.81000n    3.9617  
    4.82000n    3.9619  
    4.83000n    3.9621  
    4.84000n    3.9623  
    4.85000n    3.9625  
    4.86000n    3.9627  
    4.87000n    3.9629  
    4.88000n    3.9631  
    4.89000n    3.9632  
    4.90000n    3.9634  
    4.91000n    3.9635  
    4.92000n    3.9636  
    4.93000n    3.9638  
    4.94000n    3.9639  
    4.95000n    3.9640  
    4.96000n    3.9642  
    4.97000n    3.9643  
    4.98000n    3.9645  
    4.99000n    3.9646  
    5.00000n    3.9647  
    5.01000n    3.9649  
    5.02000n    3.9650  
    5.03000n    3.9651  
    5.04000n    3.9653  
    5.05000n    3.9654  
    5.06000n    3.9656  
    5.07000n    3.9657  
    5.08000n    3.9658  
    5.09000n    3.9660  
    5.10000n    3.9661  
    5.11000n    3.9663  
    5.12000n    3.9664  
    5.13000n    3.9665  
    5.14000n    3.9667  
    5.15000n    3.9668  
    5.16000n    3.9669  
    5.17000n    3.9671  
    5.18000n    3.9672  
    5.19000n    3.9674  
    5.20000n    3.9675  
    5.21000n    3.9676  
    5.22000n    3.9678  
    5.23000n    3.9679  
    5.24000n    3.9680  
    5.25000n    3.9682  
    5.26000n    3.9683  
    5.27000n    3.9685  
    5.28000n    3.9686  
    5.29000n    3.9687  
    5.30000n    3.9689  
    5.31000n    3.9690  
    5.32000n    3.9691  
    5.33000n    3.9693  
    5.34000n    3.9694  
    5.35000n    3.9696  
    5.36000n    3.9697  
    5.37000n    3.9698  
    5.38000n    3.9700  
    5.39000n    3.9701  
    5.40000n    3.9702  
    5.41000n    3.9704  
    5.42000n    3.9705  
    5.43000n    3.9707  
    5.44000n    3.9708  
    5.45000n    3.9709  
    5.46000n    3.9711  
    5.47000n    3.9712  
    5.48000n    3.9713  
    5.49000n    3.9715  
    5.50000n    3.9716  
    5.51000n    3.9718  
    5.52000n    3.9719  
    5.53000n    3.9720  
    5.54000n    3.9722  
    5.55000n    3.9723  
    5.56000n    3.9724  
    5.57000n    3.9726  
    5.58000n    3.9727  
    5.59000n    3.9728  
    5.60000n    3.9729  
    5.61000n    3.9730  
    5.62000n    3.9731  
    5.63000n    3.9732  
    5.64000n    3.9733  
    5.65000n    3.9734  
    5.66000n    3.9735  
    5.67000n    3.9736  
    5.68000n    3.9737  
    5.69000n    3.9738  
    5.70000n    3.9739  
    5.71000n    3.9740  
    5.72000n    3.9741  
    5.73000n    3.9742  
    5.74000n    3.9743  
    5.75000n    3.9743  
    5.76000n    3.9744  
    5.77000n    3.9745  
    5.78000n    3.9746  
    5.79000n    3.9747  
    5.80000n    3.9748  
    5.81000n    3.9749  
    5.82000n    3.9750  
    5.83000n    3.9751  
    5.84000n    3.9752  
    5.85000n    3.9753  
    5.86000n    3.9754  
    5.87000n    3.9755  
    5.88000n    3.9756  
    5.89000n    3.9757  
    5.90000n    3.9758  
    5.91000n    3.9759  
    5.92000n    3.9760  
    5.93000n    3.9761  
    5.94000n    3.9762  
    5.95000n    3.9763  
    5.96000n    3.9764  
    5.97000n    3.9765  
    5.98000n    3.9765  
    5.99000n    3.9766  
    6.00000n    3.9767  
    6.01000n    3.9768  
    6.02000n    3.9769  
    6.03000n    3.9770  
    6.04000n    3.9771  
    6.05000n    3.9772  
    6.06000n    3.9773  
    6.07000n    3.9774  
    6.08000n    3.9775  
    6.09000n    3.9776  
    6.10000n    3.9777  
    6.11000n    3.9778  
    6.12000n    3.9779  
    6.13000n    3.9780  
    6.14000n    3.9781  
    6.15000n    3.9782  
    6.16000n    3.9783  
    6.17000n    3.9784  
    6.18000n    3.9785  
    6.19000n    3.9786  
    6.20000n    3.9786  
    6.21000n    3.9787  
    6.22000n    3.9788  
    6.23000n    3.9789  
    6.24000n    3.9790  
    6.25000n    3.9791  
    6.26000n    3.9792  
    6.27000n    3.9793  
    6.28000n    3.9794  
    6.29000n    3.9795  
    6.30000n    3.9796  
    6.31000n    3.9797  
    6.32000n    3.9798  
    6.33000n    3.9799  
    6.34000n    3.9800  
    6.35000n    3.9801  
    6.36000n    3.9802  
    6.37000n    3.9803  
    6.38000n    3.9804  
    6.39000n    3.9805  
    6.40000n    3.9806  
    6.41000n    3.9807  
    6.42000n    3.9807  
    6.43000n    3.9808  
    6.44000n    3.9809  
    6.45000n    3.9810  
    6.46000n    3.9810  
    6.47000n    3.9811  
    6.48000n    3.9811  
    6.49000n    3.9812  
    6.50000n    3.9813  
    6.51000n    3.9813  
    6.52000n    3.9814  
    6.53000n    3.9815  
    6.54000n    3.9815  
    6.55000n    3.9816  
    6.56000n    3.9817  
    6.57000n    3.9817  
    6.58000n    3.9818  
    6.59000n    3.9819  
    6.60000n    3.9819  
    6.61000n    3.9820  
    6.62000n    3.9821  
    6.63000n    3.9821  
    6.64000n    3.9822  
    6.65000n    3.9822  
    6.66000n    3.9823  
    6.67000n    3.9824  
    6.68000n    3.9824  
    6.69000n    3.9825  
    6.70000n    3.9826  
    6.71000n    3.9826  
    6.72000n    3.9827  
    6.73000n    3.9828  
    6.74000n    3.9828  
    6.75000n    3.9829  
    6.76000n    3.9830  
    6.77000n    3.9830  
    6.78000n    3.9831  
    6.79000n    3.9831  
    6.80000n    3.9832  
    6.81000n    3.9833  
    6.82000n    3.9833  
    6.83000n    3.9834  
    6.84000n    3.9835  
    6.85000n    3.9835  
    6.86000n    3.9836  
    6.87000n    3.9837  
    6.88000n    3.9837  
    6.89000n    3.9838  
    6.90000n    3.9839  
    6.91000n    3.9839  
    6.92000n    3.9840  
    6.93000n    3.9841  
    6.94000n    3.9841  
    6.95000n    3.9842  
    6.96000n    3.9842  
    6.97000n    3.9843  
    6.98000n    3.9844  
    6.99000n    3.9844  
    7.00000n    3.9845  
    7.01000n    3.9846  
    7.02000n    3.9846  
    7.03000n    3.9847  
    7.04000n    3.9848  
    7.05000n    3.9848  
    7.06000n    3.9849  
    7.07000n    3.9850  
    7.08000n    3.9850  
    7.09000n    3.9851  
    7.10000n    3.9852  
    7.11000n    3.9852  
    7.12000n    3.9853  
    7.13000n    3.9853  
    7.14000n    3.9854  
    7.15000n    3.9855  
    7.16000n    3.9855  
    7.17000n    3.9856  
    7.18000n    3.9857  
    7.19000n    3.9857  
    7.20000n    3.9858  
    7.21000n    3.9859  
    7.22000n    3.9859  
    7.23000n    3.9860  
    7.24000n    3.9861  
    7.25000n    3.9861  
    7.26000n    3.9862  
    7.27000n    3.9862  
    7.28000n    3.9863  
    7.29000n    3.9864  
    7.30000n    3.9864  
    7.31000n    3.9865  
    7.32000n    3.9866  
    7.33000n    3.9866  
    7.34000n    3.9867  
    7.35000n    3.9868  
    7.36000n    3.9868  
    7.37000n    3.9868  
    7.38000n    3.9869  
    7.39000n    3.9869  
    7.40000n    3.9870  
    7.41000n    3.9870  
    7.42000n    3.9871  
    7.43000n    3.9871  
    7.44000n    3.9871  
    7.45000n    3.9872  
    7.46000n    3.9872  
    7.47000n    3.9873  
    7.48000n    3.9873  
    7.49000n    3.9874  
    7.50000n    3.9874  
    7.51000n    3.9875  
    7.52000n    3.9875  
    7.53000n    3.9875  
    7.54000n    3.9876  
    7.55000n    3.9876  
    7.56000n    3.9877  
    7.57000n    3.9877  
    7.58000n    3.9878  
    7.59000n    3.9878  
    7.60000n    3.9878  
    7.61000n    3.9879  
    7.62000n    3.9879  
    7.63000n    3.9880  
    7.64000n    3.9880  
    7.65000n    3.9881  
    7.66000n    3.9881  
    7.67000n    3.9881  
    7.68000n    3.9882  
    7.69000n    3.9882  
    7.70000n    3.9883  
    7.71000n    3.9883  
    7.72000n    3.9884  
    7.73000n    3.9884  
    7.74000n    3.9885  
    7.75000n    3.9885  
    7.76000n    3.9885  
    7.77000n    3.9886  
    7.78000n    3.9886  
    7.79000n    3.9887  
    7.80000n    3.9887  
    7.81000n    3.9888  
    7.82000n    3.9888  
    7.83000n    3.9888  
    7.84000n    3.9889  
    7.85000n    3.9889  
    7.86000n    3.9890  
    7.87000n    3.9890  
    7.88000n    3.9891  
    7.89000n    3.9891  
    7.90000n    3.9891  
    7.91000n    3.9892  
    7.92000n    3.9892  
    7.93000n    3.9893  
    7.94000n    3.9893  
    7.95000n    3.9894  
    7.96000n    3.9894  
    7.97000n    3.9894  
    7.98000n    3.9895  
    7.99000n    3.9895  
    8.00000n    3.9896  
    8.01000n    3.9896  
    8.02000n    3.9897  
    8.03000n    3.9897  
    8.04000n    3.9898  
    8.05000n    3.9898  
    8.06000n    3.9898  
    8.07000n    3.9899  
    8.08000n    3.9899  
    8.09000n    3.9900  
    8.10000n    3.9900  
    8.11000n    3.9901  
    8.12000n    3.9901  
    8.13000n    3.9901  
    8.14000n    3.9902  
    8.15000n    3.9902  
    8.16000n    3.9903  
    8.17000n    3.9903  
    8.18000n    3.9904  
    8.19000n    3.9904  
    8.20000n    3.9904  
    8.21000n    3.9905  
    8.22000n    3.9905  
    8.23000n    3.9906  
    8.24000n    3.9906  
    8.25000n    3.9907  
    8.26000n    3.9907  
    8.27000n    3.9908  
    8.28000n    3.9908  
    8.29000n    3.9908  
    8.30000n    3.9909  
    8.31000n    3.9909  
    8.32000n    3.9910  
    8.33000n    3.9910  
    8.34000n    3.9911  
    8.35000n    3.9911  
    8.36000n    3.9911  
    8.37000n    3.9912  
    8.38000n    3.9912  
    8.39000n    3.9912  
    8.40000n    3.9912  
    8.41000n    3.9913  
    8.42000n    3.9913  
    8.43000n    3.9913  
    8.44000n    3.9914  
    8.45000n    3.9914  
    8.46000n    3.9914  
    8.47000n    3.9914  
    8.48000n    3.9915  
    8.49000n    3.9915  
    8.50000n    3.9915  
    8.51000n    3.9916  
    8.52000n    3.9916  
    8.53000n    3.9916  
    8.54000n    3.9916  
    8.55000n    3.9917  
    8.56000n    3.9917  
    8.57000n    3.9917  
    8.58000n    3.9918  
    8.59000n    3.9918  
    8.60000n    3.9918  
    8.61000n    3.9918  
    8.62000n    3.9919  
    8.63000n    3.9919  
    8.64000n    3.9919  
    8.65000n    3.9920  
    8.66000n    3.9920  
    8.67000n    3.9920  
    8.68000n    3.9920  
    8.69000n    3.9921  
    8.70000n    3.9921  
    8.71000n    3.9921  
    8.72000n    3.9922  
    8.73000n    3.9922  
    8.74000n    3.9922  
    8.75000n    3.9922  
    8.76000n    3.9923  
    8.77000n    3.9923  
    8.78000n    3.9923  
    8.79000n    3.9924  
    8.80000n    3.9924  
    8.81000n    3.9924  
    8.82000n    3.9924  
    8.83000n    3.9925  
    8.84000n    3.9925  
    8.85000n    3.9925  
    8.86000n    3.9926  
    8.87000n    3.9926  
    8.88000n    3.9926  
    8.89000n    3.9926  
    8.90000n    3.9927  
    8.91000n    3.9927  
    8.92000n    3.9927  
    8.93000n    3.9928  
    8.94000n    3.9928  
    8.95000n    3.9928  
    8.96000n    3.9929  
    8.97000n    3.9929  
    8.98000n    3.9929  
    8.99000n    3.9929  
    9.00000n    3.9930  
    9.01000n    3.9930  
    9.02000n    3.9930  
    9.03000n    3.9931  
    9.04000n    3.9931  
    9.05000n    3.9931  
    9.06000n    3.9931  
    9.07000n    3.9932  
    9.08000n    3.9932  
    9.09000n    3.9932  
    9.10000n    3.9933  
    9.11000n    3.9933  
    9.12000n    3.9933  
    9.13000n    3.9933  
    9.14000n    3.9934  
    9.15000n    3.9934  
    9.16000n    3.9934  
    9.17000n    3.9935  
    9.18000n    3.9935  
    9.19000n    3.9935  
    9.20000n    3.9935  
    9.21000n    3.9936  
    9.22000n    3.9936  
    9.23000n    3.9936  
    9.24000n    3.9937  
    9.25000n    3.9937  
    9.26000n    3.9937  
    9.27000n    3.9937  
    9.28000n    3.9938  
    9.29000n    3.9938  
    9.30000n    3.9938  
    9.31000n    3.9939  
    9.32000n    3.9939  
    9.33000n    3.9939  
    9.34000n    3.9939  
    9.35000n    3.9940  
    9.36000n    3.9940  
    9.37000n    3.9940  
    9.38000n    3.9940  
    9.39000n    3.9941  
    9.40000n    3.9941  
    9.41000n    3.9941  
    9.42000n    3.9941  
    9.43000n    3.9941  
    9.44000n    3.9941  
    9.45000n    3.9942  
    9.46000n    3.9942  
    9.47000n    3.9942  
    9.48000n    3.9942  
    9.49000n    3.9942  
    9.50000n    3.9943  
    9.51000n    3.9943  
    9.52000n    3.9943  
    9.53000n    3.9943  
    9.54000n    3.9943  
    9.55000n    3.9944  
    9.56000n    3.9944  
    9.57000n    3.9944  
    9.58000n    3.9944  
    9.59000n    3.9944  
    9.60000n    3.9945  
    9.61000n    3.9945  
    9.62000n    3.9945  
    9.63000n    3.9945  
    9.64000n    3.9945  
    9.65000n    3.9946  
    9.66000n    3.9946  
    9.67000n    3.9946  
    9.68000n    3.9946  
    9.69000n    3.9946  
    9.70000n    3.9947  
    9.71000n    3.9947  
    9.72000n    3.9947  
    9.73000n    3.9947  
    9.74000n    3.9947  
    9.75000n    3.9948  
    9.76000n    3.9948  
    9.77000n    3.9948  
    9.78000n    3.9948  
    9.79000n    3.9948  
    9.80000n    3.9948  
    9.81000n    3.9949  
    9.82000n    3.9949  
    9.83000n    3.9949  
    9.84000n    3.9949  
    9.85000n    3.9949  
    9.86000n    3.9950  
    9.87000n    3.9950  
    9.88000n    3.9950  
    9.89000n    3.9950  
    9.90000n    3.9950  
    9.91000n    3.9951  
    9.92000n    3.9951  
    9.93000n    3.9951  
    9.94000n    3.9951  
    9.95000n    3.9951  
    9.96000n    3.9952  
    9.97000n    3.9952  
    9.98000n    3.9952  
    9.99000n    3.9952  
   10.00000n    3.9952  
   10.01000n    3.9953  
   10.02000n    3.9953  
   10.03000n    3.9953  
   10.04000n    3.9953  
   10.05000n    3.9953  
   10.06000n    3.9954  
   10.07000n    3.9954  
   10.08000n    3.9954  
   10.09000n    3.9954  
   10.10000n    3.9954  
   10.11000n    3.9955  
   10.12000n    3.9955  
   10.13000n    3.9955  
   10.14000n    3.9955  
   10.15000n    3.9955  
   10.16000n    3.9956  
   10.17000n    3.9956  
   10.18000n    3.9956  
   10.19000n    3.9956  
   10.20000n    3.9956  
   10.21000n    3.9956  
   10.22000n    3.9957  
   10.23000n    3.9957  
   10.24000n    3.9957  
   10.25000n    3.9957  
   10.26000n    3.9957  
   10.27000n    3.9958  
   10.28000n    3.9958  
   10.29000n    3.9958  
   10.30000n    3.9958  
   10.31000n    3.9958  
   10.32000n    3.9959  
   10.33000n    3.9959  
   10.34000n    3.9959  
   10.35000n    3.9959  
   10.36000n    3.9959  
   10.37000n    3.9959  
   10.38000n    3.9960  
   10.39000n    3.9960  
   10.40000n    3.9960  
   10.41000n    3.9960  
   10.42000n    3.9960  
   10.43000n    3.9960  
   10.44000n    3.9960  
   10.45000n    3.9960  
   10.46000n    3.9961  
   10.47000n    3.9961  
   10.48000n    3.9961  
   10.49000n    3.9961  
   10.50000n    3.9961  
   10.51000n    3.9961  
   10.52000n    3.9961  
   10.53000n    3.9962  
   10.54000n    3.9962  
   10.55000n    3.9962  
   10.56000n    3.9962  
   10.57000n    3.9962  
   10.58000n    3.9962  
   10.59000n    3.9962  
   10.60000n    3.9962  
   10.61000n    3.9963  
   10.62000n    3.9963  
   10.63000n    3.9963  
   10.64000n    3.9963  
   10.65000n    3.9963  
   10.66000n    3.9963  
   10.67000n    3.9963  
   10.68000n    3.9963  
   10.69000n    3.9964  
   10.70000n    3.9964  
   10.71000n    3.9964  
   10.72000n    3.9964  
   10.73000n    3.9964  
   10.74000n    3.9964  
   10.75000n    3.9964  
   10.76000n    3.9965  
   10.77000n    3.9965  
   10.78000n    3.9965  
   10.79000n    3.9965  
   10.80000n    3.9965  
   10.81000n    3.9965  
   10.82000n    3.9965  
   10.83000n    3.9965  
   10.84000n    3.9966  
   10.85000n    3.9966  
   10.86000n    3.9966  
   10.87000n    3.9966  
   10.88000n    3.9966  
   10.89000n    3.9966  
   10.90000n    3.9966  
   10.91000n    3.9966  
   10.92000n    3.9967  
   10.93000n    3.9967  
   10.94000n    3.9967  
   10.95000n    3.9967  
   10.96000n    3.9967  
   10.97000n    3.9967  
   10.98000n    3.9967  
   10.99000n    3.9968  
   11.00000n    3.9968  
   11.01000n    3.9968  
   11.02000n    3.9968  
   11.03000n    3.9968  
   11.04000n    3.9968  
   11.05000n    3.9968  
   11.06000n    3.9968  
   11.07000n    3.9969  
   11.08000n    3.9969  
   11.09000n    3.9969  
   11.10000n    3.9969  
   11.11000n    3.9969  
   11.12000n    3.9969  
   11.13000n    3.9969  
   11.14000n    3.9969  
   11.15000n    3.9970  
   11.16000n    3.9970  
   11.17000n    3.9970  
   11.18000n    3.9970  
   11.19000n    3.9970  
   11.20000n    3.9970  
   11.21000n    3.9970  
   11.22000n    3.9971  
   11.23000n    3.9971  
   11.24000n    3.9971  
   11.25000n    3.9971  
   11.26000n    3.9971  
   11.27000n    3.9971  
   11.28000n    3.9971  
   11.29000n    3.9971  
   11.30000n    3.9972  
   11.31000n    3.9972  
   11.32000n    3.9972  
   11.33000n    3.9972  
   11.34000n    3.9972  
   11.35000n    3.9972  
   11.36000n    3.9972  
   11.37000n    3.9972  
   11.38000n    3.9972  
   11.39000n    3.9973  
   11.40000n    3.9973  
   11.41000n    3.9973  
   11.42000n    3.9973  
   11.43000n    3.9973  
   11.44000n    3.9973  
   11.45000n    3.9973  
   11.46000n    3.9973  
   11.47000n    3.9973  
   11.48000n    3.9973  
   11.49000n    3.9973  
   11.50000n    3.9974  
   11.51000n    3.9974  
   11.52000n    3.9974  
   11.53000n    3.9974  
   11.54000n    3.9974  
   11.55000n    3.9974  
   11.56000n    3.9974  
   11.57000n    3.9974  
   11.58000n    3.9974  
   11.59000n    3.9974  
   11.60000n    3.9974  
   11.61000n    3.9975  
   11.62000n    3.9975  
   11.63000n    3.9975  
   11.64000n    3.9975  
   11.65000n    3.9975  
   11.66000n    3.9975  
   11.67000n    3.9975  
   11.68000n    3.9975  
   11.69000n    3.9975  
   11.70000n    3.9975  
   11.71000n    3.9975  
   11.72000n    3.9976  
   11.73000n    3.9976  
   11.74000n    3.9976  
   11.75000n    3.9976  
   11.76000n    3.9976  
   11.77000n    3.9976  
   11.78000n    3.9976  
   11.79000n    3.9976  
   11.80000n    3.9976  
   11.81000n    3.9976  
   11.82000n    3.9976  
   11.83000n    3.9977  
   11.84000n    3.9977  
   11.85000n    3.9977  
   11.86000n    3.9977  
   11.87000n    3.9977  
   11.88000n    3.9977  
   11.89000n    3.9977  
   11.90000n    3.9977  
   11.91000n    3.9977  
   11.92000n    3.9977  
   11.93000n    3.9977  
   11.94000n    3.9978  
   11.95000n    3.9978  
   11.96000n    3.9978  
   11.97000n    3.9978  
   11.98000n    3.9978  
   11.99000n    3.9978  
   12.00000n    3.9978  
   12.01000n    3.9978  
   12.02000n    3.9978  
   12.03000n    3.9978  
   12.04000n    3.9978  
   12.05000n    3.9978  
   12.06000n    3.9979  
   12.07000n    3.9979  
   12.08000n    3.9979  
   12.09000n    3.9979  
   12.10000n    3.9979  
   12.11000n    3.9979  
   12.12000n    3.9979  
   12.13000n    3.9979  
   12.14000n    3.9979  
   12.15000n    3.9979  
   12.16000n    3.9979  
   12.17000n    3.9980  
   12.18000n    3.9980  
   12.19000n    3.9980  
   12.20000n    3.9980  
   12.21000n    3.9980  
   12.22000n    3.9980  
   12.23000n    3.9980  
   12.24000n    3.9980  
   12.25000n    3.9980  
   12.26000n    3.9980  
   12.27000n    3.9980  
   12.28000n    3.9981  
   12.29000n    3.9981  
   12.30000n    3.9981  
   12.31000n    3.9981  
   12.32000n    3.9981  
   12.33000n    3.9981  
   12.34000n    3.9981  
   12.35000n    3.9981  
   12.36000n    3.9981  
   12.37000n    3.9981  
   12.38000n    3.9981  
   12.39000n    3.9981  
   12.40000n    3.9981  
   12.41000n    3.9982  
   12.42000n    3.9982  
   12.43000n    3.9982  
   12.44000n    3.9982  
   12.45000n    3.9982  
   12.46000n    3.9982  
   12.47000n    3.9982  
   12.48000n    3.9982  
   12.49000n    3.9982  
   12.50000n    3.9982  
   12.51000n    3.9982  
   12.52000n    3.9982  
   12.53000n    3.9982  
   12.54000n    3.9982  
   12.55000n    3.9982  
   12.56000n    3.9982  
   12.57000n    3.9982  
   12.58000n    3.9983  
   12.59000n    3.9983  
   12.60000n    3.9983  
   12.61000n    3.9983  
   12.62000n    3.9983  
   12.63000n    3.9983  
   12.64000n    3.9983  
   12.65000n    3.9983  
   12.66000n    3.9983  
   12.67000n    3.9983  
   12.68000n    3.9983  
   12.69000n    3.9983  
   12.70000n    3.9983  
   12.71000n    3.9983  
   12.72000n    3.9983  
   12.73000n    3.9983  
   12.74000n    3.9983  
   12.75000n    3.9984  
   12.76000n    3.9984  
   12.77000n    3.9984  
   12.78000n    3.9984  
   12.79000n    3.9984  
   12.80000n    3.9984  
   12.81000n    3.9984  
   12.82000n    3.9984  
   12.83000n    3.9984  
   12.84000n    3.9984  
   12.85000n    3.9984  
   12.86000n    3.9984  
   12.87000n    3.9984  
   12.88000n    3.9984  
   12.89000n    3.9984  
   12.90000n    3.9984  
   12.91000n    3.9985  
   12.92000n    3.9985  
   12.93000n    3.9985  
   12.94000n    3.9985  
   12.95000n    3.9985  
   12.96000n    3.9985  
   12.97000n    3.9985  
   12.98000n    3.9985  
   12.99000n    3.9985  
   13.00000n    3.9985  
   13.01000n    3.9985  
   13.02000n    3.9985  
   13.03000n    3.9985  
   13.04000n    3.9985  
   13.05000n    3.9985  
   13.06000n    3.9985  
   13.07000n    3.9985  
   13.08000n    3.9986  
   13.09000n    3.9986  
   13.10000n    3.9986  
   13.11000n    3.9986  
   13.12000n    3.9986  
   13.13000n    3.9986  
   13.14000n    3.9986  
   13.15000n    3.9986  
   13.16000n    3.9986  
   13.17000n    3.9986  
   13.18000n    3.9986  
   13.19000n    3.9986  
   13.20000n    3.9986  
   13.21000n    3.9986  
   13.22000n    3.9986  
   13.23000n    3.9986  
   13.24000n    3.9986  
   13.25000n    3.9987  
   13.26000n    3.9987  
   13.27000n    3.9987  
   13.28000n    3.9987  
   13.29000n    3.9987  
   13.30000n    3.9987  
   13.31000n    3.9987  
   13.32000n    3.9987  
   13.33000n    3.9987  
   13.34000n    3.9987  
   13.35000n    3.9987  
   13.36000n    3.9987  
   13.37000n    3.9987  
   13.38000n    3.9987  
   13.39000n    3.9987  
   13.40000n    3.9987  
   13.41000n    3.9987  
   13.42000n    3.9987  
   13.43000n    3.9987  
   13.44000n    3.9987  
   13.45000n    3.9988  
   13.46000n    3.9988  
   13.47000n    3.9988  
   13.48000n    3.9988  
   13.49000n    3.9988  
   13.50000n    3.9988  
   13.51000n    3.9988  
   13.52000n    3.9988  
   13.53000n    3.9988  
   13.54000n    3.9988  
   13.55000n    3.9988  
   13.56000n    3.9988  
   13.57000n    3.9988  
   13.58000n    3.9988  
   13.59000n    3.9988  
   13.60000n    3.9988  
   13.61000n    3.9988  
   13.62000n    3.9988  
   13.63000n    3.9988  
   13.64000n    3.9988  
   13.65000n    3.9988  
   13.66000n    3.9988  
   13.67000n    3.9988  
   13.68000n    3.9988  
   13.69000n    3.9989  
   13.70000n    3.9989  
   13.71000n    3.9989  
   13.72000n    3.9989  
   13.73000n    3.9989  
   13.74000n    3.9989  
   13.75000n    3.9989  
   13.76000n    3.9989  
   13.77000n    3.9989  
   13.78000n    3.9989  
   13.79000n    3.9989  
   13.80000n    3.9989  
   13.81000n    3.9989  
   13.82000n    3.9989  
   13.83000n    3.9989  
   13.84000n    3.9989  
   13.85000n    3.9989  
   13.86000n    3.9989  
   13.87000n    3.9989  
   13.88000n    3.9989  
   13.89000n    3.9989  
   13.90000n    3.9989  
   13.91000n    3.9989  
   13.92000n    3.9990  
   13.93000n    3.9990  
   13.94000n    3.9990  
   13.95000n    3.9990  
   13.96000n    3.9990  
   13.97000n    3.9990  
   13.98000n    3.9990  
   13.99000n    3.9990  
   14.00000n    3.9990  
   14.01000n    3.9990  
   14.02000n    3.9990  
   14.03000n    3.9990  
   14.04000n    3.9990  
   14.05000n    3.9990  
   14.06000n    3.9990  
   14.07000n    3.9990  
   14.08000n    3.9990  
   14.09000n    3.9990  
   14.10000n    3.9990  
   14.11000n    3.9990  
   14.12000n    3.9990  
   14.13000n    3.9990  
   14.14000n    3.9990  
   14.15000n    3.9990  
   14.16000n    3.9991  
   14.17000n    3.9991  
   14.18000n    3.9991  
   14.19000n    3.9991  
   14.20000n    3.9991  
   14.21000n    3.9991  
   14.22000n    3.9991  
   14.23000n    3.9991  
   14.24000n    3.9991  
   14.25000n    3.9991  
   14.26000n    3.9991  
   14.27000n    3.9991  
   14.28000n    3.9991  
   14.29000n    3.9991  
   14.30000n    3.9991  
   14.31000n    3.9991  
   14.32000n    3.9991  
   14.33000n    3.9991  
   14.34000n    3.9991  
   14.35000n    3.9991  
   14.36000n    3.9991  
   14.37000n    3.9991  
   14.38000n    3.9991  
   14.39000n    3.9991  
   14.40000n    3.9991  
   14.41000n    3.9991  
   14.42000n    3.9991  
   14.43000n    3.9992  
   14.44000n    3.9992  
   14.45000n    3.9992  
   14.46000n    3.9992  
   14.47000n    3.9992  
   14.48000n    3.9992  
   14.49000n    3.9992  
   14.50000n    3.9992  
   14.51000n    3.9992  
   14.52000n    3.9992  
   14.53000n    3.9992  
   14.54000n    3.9992  
   14.55000n    3.9992  
   14.56000n    3.9992  
   14.57000n    3.9992  
   14.58000n    3.9992  
   14.59000n    3.9992  
   14.60000n    3.9992  
   14.61000n    3.9992  
   14.62000n    3.9992  
   14.63000n    3.9992  
   14.64000n    3.9992  
   14.65000n    3.9992  
   14.66000n    3.9992  
   14.67000n    3.9992  
   14.68000n    3.9992  
   14.69000n    3.9992  
   14.70000n    3.9992  
   14.71000n    3.9992  
   14.72000n    3.9992  
   14.73000n    3.9992  
   14.74000n    3.9992  
   14.75000n    3.9992  
   14.76000n    3.9992  
   14.77000n    3.9992  
   14.78000n    3.9992  
   14.79000n    3.9992  
   14.80000n    3.9993  
   14.81000n    3.9993  
   14.82000n    3.9993  
   14.83000n    3.9993  
   14.84000n    3.9993  
   14.85000n    3.9993  
   14.86000n    3.9993  
   14.87000n    3.9993  
   14.88000n    3.9993  
   14.89000n    3.9993  
   14.90000n    3.9993  
   14.91000n    3.9993  
   14.92000n    3.9993  
   14.93000n    3.9993  
   14.94000n    3.9993  
   14.95000n    3.9993  
   14.96000n    3.9993  
   14.97000n    3.9993  
   14.98000n    3.9993  
   14.99000n    3.9993  
   15.00000n    3.9993  
   15.01000n    3.9993  
   15.02000n    3.9993  
   15.03000n    3.9993  
   15.04000n    3.9993  
   15.05000n    3.9993  
   15.06000n    3.9993  
   15.07000n    3.9993  
   15.08000n    3.9993  
   15.09000n    3.9993  
   15.10000n    3.9993  
   15.11000n    3.9993  
   15.12000n    3.9993  
   15.13000n    3.9993  
   15.14000n    3.9993  
   15.15000n    3.9993  
   15.16000n    3.9993  
   15.17000n    3.9994  
   15.18000n    3.9994  
   15.19000n    3.9994  
   15.20000n    3.9994  
   15.21000n    3.9994  
   15.22000n    3.9994  
   15.23000n    3.9994  
   15.24000n    3.9994  
   15.25000n    3.9994  
   15.26000n    3.9994  
   15.27000n    3.9994  
   15.28000n    3.9994  
   15.29000n    3.9994  
   15.30000n    3.9994  
   15.31000n    3.9994  
   15.32000n    3.9994  
   15.33000n    3.9994  
   15.34000n    3.9994  
   15.35000n    3.9994  
   15.36000n    3.9994  
   15.37000n    3.9994  
   15.38000n    3.9994  
   15.39000n    3.9994  
   15.40000n    3.9994  
   15.41000n    3.9994  
   15.42000n    3.9994  
   15.43000n    3.9994  
   15.44000n    3.9994  
   15.45000n    3.9994  
   15.46000n    3.9994  
   15.47000n    3.9994  
   15.48000n    3.9994  
   15.49000n    3.9994  
   15.50000n    3.9994  
   15.51000n    3.9994  
   15.52000n    3.9994  
   15.53000n    3.9994  
   15.54000n    3.9994  
   15.55000n    3.9994  
   15.56000n    3.9994  
   15.57000n    3.9994  
   15.58000n    3.9994  
   15.59000n    3.9994  
   15.60000n    3.9995  
   15.61000n    3.9995  
   15.62000n    3.9995  
   15.63000n    3.9995  
   15.64000n    3.9995  
   15.65000n    3.9995  
   15.66000n    3.9995  
   15.67000n    3.9995  
   15.68000n    3.9995  
   15.69000n    3.9995  
   15.70000n    3.9995  
   15.71000n    3.9995  
   15.72000n    3.9995  
   15.73000n    3.9995  
   15.74000n    3.9995  
   15.75000n    3.9995  
   15.76000n    3.9995  
   15.77000n    3.9995  
   15.78000n    3.9995  
   15.79000n    3.9995  
   15.80000n    3.9995  
   15.81000n    3.9995  
   15.82000n    3.9995  
   15.83000n    3.9995  
   15.84000n    3.9995  
   15.85000n    3.9995  
   15.86000n    3.9995  
   15.87000n    3.9995  
   15.88000n    3.9995  
   15.89000n    3.9995  
   15.90000n    3.9995  
   15.91000n    3.9995  
   15.92000n    3.9995  
   15.93000n    3.9995  
   15.94000n    3.9995  
   15.95000n    3.9995  
   15.96000n    3.9995  
   15.97000n    3.9995  
   15.98000n    3.9995  
   15.99000n    3.9995  
   16.00000n    3.9995  
   16.01000n    3.9995  
   16.02000n    3.9995  
   16.03000n    3.9995  
   16.04000n    3.9995  
   16.05000n    3.9995  
   16.06000n    3.9995  
   16.07000n    3.9995  
   16.08000n    3.9995  
   16.09000n    3.9995  
   16.10000n    3.9995  
   16.11000n    3.9996  
   16.12000n    3.9996  
   16.13000n    3.9996  
   16.14000n    3.9996  
   16.15000n    3.9996  
   16.16000n    3.9996  
   16.17000n    3.9996  
   16.18000n    3.9996  
   16.19000n    3.9996  
   16.20000n    3.9996  
   16.21000n    3.9996  
   16.22000n    3.9996  
   16.23000n    3.9996  
   16.24000n    3.9996  
   16.25000n    3.9996  
   16.26000n    3.9996  
   16.27000n    3.9996  
   16.28000n    3.9996  
   16.29000n    3.9996  
   16.30000n    3.9996  
   16.31000n    3.9996  
   16.32000n    3.9996  
   16.33000n    3.9996  
   16.34000n    3.9996  
   16.35000n    3.9996  
   16.36000n    3.9996  
   16.37000n    3.9996  
   16.38000n    3.9996  
   16.39000n    3.9996  
   16.40000n    3.9996  
   16.41000n    3.9996  
   16.42000n    3.9996  
   16.43000n    3.9996  
   16.44000n    3.9996  
   16.45000n    3.9996  
   16.46000n    3.9996  
   16.47000n    3.9996  
   16.48000n    3.9996  
   16.49000n    3.9996  
   16.50000n    3.9996  
   16.51000n    3.9996  
   16.52000n    3.9996  
   16.53000n    3.9996  
   16.54000n    3.9996  
   16.55000n    3.9996  
   16.56000n    3.9996  
   16.57000n    3.9996  
   16.58000n    3.9996  
   16.59000n    3.9996  
   16.60000n    3.9996  
   16.61000n    3.9996  
   16.62000n    3.9996  
   16.63000n    3.9996  
   16.64000n    3.9996  
   16.65000n    3.9996  
   16.66000n    3.9996  
   16.67000n    3.9996  
   16.68000n    3.9996  
   16.69000n    3.9996  
   16.70000n    3.9996  
   16.71000n    3.9996  
   16.72000n    3.9996  
   16.73000n    3.9996  
   16.74000n    3.9996  
   16.75000n    3.9996  
   16.76000n    3.9996  
   16.77000n    3.9996  
   16.78000n    3.9997  
   16.79000n    3.9997  
   16.80000n    3.9997  
   16.81000n    3.9997  
   16.82000n    3.9997  
   16.83000n    3.9997  
   16.84000n    3.9997  
   16.85000n    3.9997  
   16.86000n    3.9997  
   16.87000n    3.9997  
   16.88000n    3.9997  
   16.89000n    3.9997  
   16.90000n    3.9997  
   16.91000n    3.9997  
   16.92000n    3.9997  
   16.93000n    3.9997  
   16.94000n    3.9997  
   16.95000n    3.9997  
   16.96000n    3.9997  
   16.97000n    3.9997  
   16.98000n    3.9997  
   16.99000n    3.9997  
   17.00000n    3.9997  
   17.01000n    3.9997  
   17.02000n    3.9997  
   17.03000n    3.9997  
   17.04000n    3.9997  
   17.05000n    3.9997  
   17.06000n    3.9997  
   17.07000n    3.9997  
   17.08000n    3.9997  
   17.09000n    3.9997  
   17.10000n    3.9997  
   17.11000n    3.9997  
   17.12000n    3.9997  
   17.13000n    3.9997  
   17.14000n    3.9997  
   17.15000n    3.9997  
   17.16000n    3.9997  
   17.17000n    3.9997  
   17.18000n    3.9997  
   17.19000n    3.9997  
   17.20000n    3.9997  
   17.21000n    3.9997  
   17.22000n    3.9997  
   17.23000n    3.9997  
   17.24000n    3.9997  
   17.25000n    3.9997  
   17.26000n    3.9997  
   17.27000n    3.9997  
   17.28000n    3.9997  
   17.29000n    3.9997  
   17.30000n    3.9997  
   17.31000n    3.9997  
   17.32000n    3.9997  
   17.33000n    3.9997  
   17.34000n    3.9997  
   17.35000n    3.9997  
   17.36000n    3.9997  
   17.37000n    3.9997  
   17.38000n    3.9997  
   17.39000n    3.9997  
   17.40000n    3.9997  
   17.41000n    3.9997  
   17.42000n    3.9997  
   17.43000n    3.9997  
   17.44000n    3.9997  
   17.45000n    3.9997  
   17.46000n    3.9997  
   17.47000n    3.9997  
   17.48000n    3.9997  
   17.49000n    3.9997  
   17.50000n    3.9997  
   17.51000n    3.9997  
   17.52000n    3.9997  
   17.53000n    3.9997  
   17.54000n    3.9997  
   17.55000n    3.9997  
   17.56000n    3.9997  
   17.57000n    3.9997  
   17.58000n    3.9997  
   17.59000n    3.9997  
   17.60000n    3.9997  
   17.61000n    3.9997  
   17.62000n    3.9997  
   17.63000n    3.9997  
   17.64000n    3.9997  
   17.65000n    3.9997  
   17.66000n    3.9997  
   17.67000n    3.9998  
   17.68000n    3.9998  
   17.69000n    3.9998  
   17.70000n    3.9998  
   17.71000n    3.9998  
   17.72000n    3.9998  
   17.73000n    3.9998  
   17.74000n    3.9998  
   17.75000n    3.9998  
   17.76000n    3.9998  
   17.77000n    3.9998  
   17.78000n    3.9998  
   17.79000n    3.9998  
   17.80000n    3.9998  
   17.81000n    3.9998  
   17.82000n    3.9998  
   17.83000n    3.9998  
   17.84000n    3.9998  
   17.85000n    3.9998  
   17.86000n    3.9998  
   17.87000n    3.9998  
   17.88000n    3.9998  
   17.89000n    3.9998  
   17.90000n    3.9998  
   17.91000n    3.9998  
   17.92000n    3.9998  
   17.93000n    3.9998  
   17.94000n    3.9998  
   17.95000n    3.9998  
   17.96000n    3.9998  
   17.97000n    3.9998  
   17.98000n    3.9998  
   17.99000n    3.9998  
   18.00000n    3.9998  
   18.01000n    3.9998  
   18.02000n    3.9998  
   18.03000n    3.9998  
   18.04000n    3.9998  
   18.05000n    3.9998  
   18.06000n    3.9998  
   18.07000n    3.9998  
   18.08000n    3.9998  
   18.09000n    3.9998  
   18.10000n    3.9998  
   18.11000n    3.9998  
   18.12000n    3.9998  
   18.13000n    3.9998  
   18.14000n    3.9998  
   18.15000n    3.9998  
   18.16000n    3.9998  
   18.17000n    3.9998  
   18.18000n    3.9998  
   18.19000n    3.9998  
   18.20000n    3.9998  
   18.21000n    3.9998  
   18.22000n    3.9998  
   18.23000n    3.9998  
   18.24000n    3.9998  
   18.25000n    3.9998  
   18.26000n    3.9998  
   18.27000n    3.9998  
   18.28000n    3.9998  
   18.29000n    3.9998  
   18.30000n    3.9998  
   18.31000n    3.9998  
   18.32000n    3.9998  
   18.33000n    3.9998  
   18.34000n    3.9998  
   18.35000n    3.9998  
   18.36000n    3.9998  
   18.37000n    3.9998  
   18.38000n    3.9998  
   18.39000n    3.9998  
   18.40000n    3.9998  
   18.41000n    3.9998  
   18.42000n    3.9998  
   18.43000n    3.9998  
   18.44000n    3.9998  
   18.45000n    3.9998  
   18.46000n    3.9998  
   18.47000n    3.9998  
   18.48000n    3.9998  
   18.49000n    3.9998  
   18.50000n    3.9998  
   18.51000n    3.9998  
   18.52000n    3.9998  
   18.53000n    3.9998  
   18.54000n    3.9998  
   18.55000n    3.9998  
   18.56000n    3.9998  
   18.57000n    3.9998  
   18.58000n    3.9998  
   18.59000n    3.9998  
   18.60000n    3.9998  
   18.61000n    3.9998  
   18.62000n    3.9998  
   18.63000n    3.9998  
   18.64000n    3.9998  
   18.65000n    3.9998  
   18.66000n    3.9998  
   18.67000n    3.9998  
   18.68000n    3.9998  
   18.69000n    3.9998  
   18.70000n    3.9998  
   18.71000n    3.9998  
   18.72000n    3.9998  
   18.73000n    3.9998  
   18.74000n    3.9998  
   18.75000n    3.9998  
   18.76000n    3.9998  
   18.77000n    3.9998  
   18.78000n    3.9998  
   18.79000n    3.9998  
   18.80000n    3.9998  
   18.81000n    3.9998  
   18.82000n    3.9998  
   18.83000n    3.9998  
   18.84000n    3.9998  
   18.85000n    3.9998  
   18.86000n    3.9998  
   18.87000n    3.9998  
   18.88000n    3.9998  
   18.89000n    3.9998  
   18.90000n    3.9998  
   18.91000n    3.9998  
   18.92000n    3.9998  
   18.93000n    3.9998  
   18.94000n    3.9998  
   18.95000n    3.9998  
   18.96000n    3.9998  
   18.97000n    3.9998  
   18.98000n    3.9998  
   18.99000n    3.9998  
   19.00000n    3.9998  
   19.01000n    3.9999  
   19.02000n    3.9999  
   19.03000n    3.9999  
   19.04000n    3.9999  
   19.05000n    3.9999  
   19.06000n    3.9999  
   19.07000n    3.9999  
   19.08000n    3.9999  
   19.09000n    3.9999  
   19.10000n    3.9999  
   19.11000n    3.9999  
   19.12000n    3.9999  
   19.13000n    3.9999  
   19.14000n    3.9999  
   19.15000n    3.9999  
   19.16000n    3.9999  
   19.17000n    3.9999  
   19.18000n    3.9999  
   19.19000n    3.9999  
   19.20000n    3.9999  
   19.21000n    3.9999  
   19.22000n    3.9999  
   19.23000n    3.9999  
   19.24000n    3.9999  
   19.25000n    3.9999  
   19.26000n    3.9999  
   19.27000n    3.9999  
   19.28000n    3.9999  
   19.29000n    3.9999  
   19.30000n    3.9999  
   19.31000n    3.9999  
   19.32000n    3.9999  
   19.33000n    3.9999  
   19.34000n    3.9999  
   19.35000n    3.9999  
   19.36000n    3.9999  
   19.37000n    3.9999  
   19.38000n    3.9999  
   19.39000n    3.9999  
   19.40000n    3.9999  
   19.41000n    3.9999  
   19.42000n    3.9999  
   19.43000n    3.9999  
   19.44000n    3.9999  
   19.45000n    3.9999  
   19.46000n    3.9999  
   19.47000n    3.9999  
   19.48000n    3.9999  
   19.49000n    3.9999  
   19.50000n    3.9999  
   19.51000n    3.9999  
   19.52000n    3.9999  
   19.53000n    3.9999  
   19.54000n    3.9999  
   19.55000n    3.9999  
   19.56000n    3.9999  
   19.57000n    3.9999  
   19.58000n    3.9999  
   19.59000n    3.9999  
   19.60000n    3.9999  
   19.61000n    3.9999  
   19.62000n    3.9999  
   19.63000n    3.9999  
   19.64000n    3.9999  
   19.65000n    3.9999  
   19.66000n    3.9999  
   19.67000n    3.9999  
   19.68000n    3.9999  
   19.69000n    3.9999  
   19.70000n    3.9999  
   19.71000n    3.9999  
   19.72000n    3.9999  
   19.73000n    3.9999  
   19.74000n    3.9999  
   19.75000n    3.9999  
   19.76000n    3.9999  
   19.77000n    3.9999  
   19.78000n    3.9999  
   19.79000n    3.9999  
   19.80000n    3.9999  
   19.81000n    3.9999  
   19.82000n    3.9999  
   19.83000n    3.9999  
   19.84000n    3.9999  
   19.85000n    3.9999  
   19.86000n    3.9999  
   19.87000n    3.9999  
   19.88000n    3.9999  
   19.89000n    3.9999  
   19.90000n    3.9999  
   19.91000n    3.9999  
   19.92000n    3.9999  
   19.93000n    3.9999  
   19.94000n    3.9999  
   19.95000n    3.9999  
   19.96000n    3.9999  
   19.97000n    3.9999  
   19.98000n    3.9999  
   19.99000n    3.9999  
   20.00000n    3.9999  
y
x

 time         voltage   
             8          
    0.          0.      
   10.00000p    0.      
   20.00000p    0.      
   30.00000p    0.      
   40.00000p    0.      
   50.00000p    0.      
   60.00000p    0.      
   70.00000p    0.      
   80.00000p    0.      
   90.00000p    0.      
  100.00000p    0.      
  110.00000p    0.      
  120.00000p    0.      
  130.00000p    0.      
  140.00000p    0.      
  150.00000p    0.      
  160.00000p    0.      
  170.00000p    0.      
  180.00000p    0.      
  190.00000p    0.      
  200.00000p    0.      
  210.00000p    0.      
  220.00000p    0.      
  230.00000p    0.      
  240.00000p    0.      
  250.00000p    0.      
  260.00000p    0.      
  270.00000p    0.      
  280.00000p    0.      
  290.00000p    0.      
  300.00000p    0.      
  310.00000p    0.      
  320.00000p    0.      
  330.00000p    0.      
  340.00000p    0.      
  350.00000p    0.      
  360.00000p    0.      
  370.00000p    0.      
  380.00000p    0.      
  390.00000p    0.      
  400.00000p    0.      
  410.00000p    0.      
  420.00000p    0.      
  430.00000p    0.      
  440.00000p    0.      
  450.00000p    0.      
  460.00000p    0.      
  470.00000p    0.      
  480.00000p    0.      
  490.00000p    0.      
  500.00000p    0.      
  510.00000p    0.      
  520.00000p    0.      
  530.00000p    0.      
  540.00000p    0.      
  550.00000p    0.      
  560.00000p    0.      
  570.00000p    0.      
  580.00000p    0.      
  590.00000p    0.      
  600.00000p    0.      
  610.00000p    0.      
  620.00000p    0.      
  630.00000p    0.      
  640.00000p    0.      
  650.00000p    0.      
  660.00000p    0.      
  670.00000p    0.      
  680.00000p    0.      
  690.00000p    0.      
  700.00000p    0.      
  710.00000p    0.      
  720.00000p    0.      
  730.00000p    0.      
  740.00000p    0.      
  750.00000p    0.      
  760.00000p    0.      
  770.00000p    0.      
  780.00000p    0.      
  790.00000p    0.      
  800.00000p    0.      
  810.00000p    0.      
  820.00000p    0.      
  830.00000p    0.      
  840.00000p    0.      
  850.00000p    0.      
  860.00000p    0.      
  870.00000p    0.      
  880.00000p    0.      
  890.00000p    0.      
  900.00000p    0.      
  910.00000p    0.      
  920.00000p    0.      
  930.00000p    0.      
  940.00000p    0.      
  950.00000p    0.      
  960.00000p    0.      
  970.00000p    0.      
  980.00000p    0.      
  990.00000p    0.      
    1.00000n    0.      
    1.01000n   71.9207m 
    1.02000n  359.4392m 
    1.03000n  631.7691m 
    1.04000n  815.5739m 
    1.05000n  947.8703m 
    1.06000n    1.0431  
    1.07000n    1.1328  
    1.08000n    1.2056  
    1.09000n    1.2784  
    1.10000n    1.3463  
    1.11000n    1.4104  
    1.12000n    1.4744  
    1.13000n    1.5384  
    1.14000n    1.5976  
    1.15000n    1.6536  
    1.16000n    1.7095  
    1.17000n    1.7655  
    1.18000n    1.8214  
    1.19000n    1.8774  
    1.20000n    1.9290  
    1.21000n    1.9756  
    1.22000n    2.0222  
    1.23000n    2.0688  
    1.24000n    2.1153  
    1.25000n    2.1619  
    1.26000n    2.2085  
    1.27000n    2.2551  
    1.28000n    2.2942  
    1.29000n    2.3314  
    1.30000n    2.3686  
    1.31000n    2.4057  
    1.32000n    2.4429  
    1.33000n    2.4801  
    1.34000n    2.5173  
    1.35000n    2.5544  
    1.36000n    2.5916  
    1.37000n    2.6254  
    1.38000n    2.6536  
    1.39000n    2.6817  
    1.40000n    2.7098  
    1.41000n    2.7379  
    1.42000n    2.7660  
    1.43000n    2.7941  
    1.44000n    2.8222  
    1.45000n    2.8503  
    1.46000n    2.8784  
    1.47000n    2.9065  
    1.48000n    2.9346  
    1.49000n    2.9596  
    1.50000n    2.9794  
    1.51000n    2.9991  
    1.52000n    3.0189  
    1.53000n    3.0387  
    1.54000n    3.0585  
    1.55000n    3.0783  
    1.56000n    3.0980  
    1.57000n    3.1178  
    1.58000n    3.1376  
    1.59000n    3.1574  
    1.60000n    3.1772  
    1.61000n    3.1969  
    1.62000n    3.2167  
    1.63000n    3.2365  
    1.64000n    3.2552  
    1.65000n    3.2682  
    1.66000n    3.2813  
    1.67000n    3.2943  
    1.68000n    3.3073  
    1.69000n    3.3203  
    1.70000n    3.3333  
    1.71000n    3.3463  
    1.72000n    3.3594  
    1.73000n    3.3724  
    1.74000n    3.3854  
    1.75000n    3.3984  
    1.76000n    3.4114  
    1.77000n    3.4245  
    1.78000n    3.4375  
    1.79000n    3.4505  
    1.80000n    3.4635  
    1.81000n    3.4765  
    1.82000n    3.4855  
    1.83000n    3.4935  
    1.84000n    3.5015  
    1.85000n    3.5095  
    1.86000n    3.5175  
    1.87000n    3.5255  
    1.88000n    3.5335  
    1.89000n    3.5415  
    1.90000n    3.5495  
    1.91000n    3.5575  
    1.92000n    3.5655  
    1.93000n    3.5735  
    1.94000n    3.5815  
    1.95000n    3.5896  
    1.96000n    3.5976  
    1.97000n    3.6056  
    1.98000n    3.6136  
    1.99000n    3.6216  
    2.00000n    3.6296  
    2.01000n    3.6376  
    2.02000n    3.6456  
    2.03000n    3.6536  
    2.04000n    3.6588  
    2.05000n    3.6633  
    2.06000n    3.6679  
    2.07000n    3.6724  
    2.08000n    3.6769  
    2.09000n    3.6815  
    2.10000n    3.6860  
    2.11000n    3.6905  
    2.12000n    3.6951  
    2.13000n    3.6996  
    2.14000n    3.7041  
    2.15000n    3.7087  
    2.16000n    3.7132  
    2.17000n    3.7178  
    2.18000n    3.7223  
    2.19000n    3.7268  
    2.20000n    3.7314  
    2.21000n    3.7359  
    2.22000n    3.7404  
    2.23000n    3.7450  
    2.24000n    3.7495  
    2.25000n    3.7540  
    2.26000n    3.7586  
    2.27000n    3.7631  
    2.28000n    3.7677  
    2.29000n    3.7713  
    2.30000n    3.7738  
    2.31000n    3.7762  
    2.32000n    3.7787  
    2.33000n    3.7812  
    2.34000n    3.7836  
    2.35000n    3.7861  
    2.36000n    3.7886  
    2.37000n    3.7910  
    2.38000n    3.7935  
    2.39000n    3.7960  
    2.40000n    3.7984  
    2.41000n    3.8009  
    2.42000n    3.8034  
    2.43000n    3.8058  
    2.44000n    3.8083  
    2.45000n    3.8108  
    2.46000n    3.8132  
    2.47000n    3.8157  
    2.48000n    3.8182  
    2.49000n    3.8206  
    2.50000n    3.8231  
    2.51000n    3.8256  
    2.52000n    3.8280  
    2.53000n    3.8305  
    2.54000n    3.8330  
    2.55000n    3.8354  
    2.56000n    3.8379  
    2.57000n    3.8404  
    2.58000n    3.8427  
    2.59000n    3.8441  
    2.60000n    3.8454  
    2.61000n    3.8467  
    2.62000n    3.8480  
    2.63000n    3.8494  
    2.64000n    3.8507  
    2.65000n    3.8520  
    2.66000n    3.8533  
    2.67000n    3.8547  
    2.68000n    3.8560  
    2.69000n    3.8573  
    2.70000n    3.8586  
    2.71000n    3.8600  
    2.72000n    3.8613  
    2.73000n    3.8626  
    2.74000n    3.8639  
    2.75000n    3.8653  
    2.76000n    3.8666  
    2.77000n    3.8679  
    2.78000n    3.8692  
    2.79000n    3.8706  
    2.80000n    3.8719  
    2.81000n    3.8732  
    2.82000n    3.8745  
    2.83000n    3.8758  
    2.84000n    3.8772  
    2.85000n    3.8785  
    2.86000n    3.8798  
    2.87000n    3.8811  
    2.88000n    3.8825  
    2.89000n    3.8838  
    2.90000n    3.8851  
    2.91000n    3.8864  
    2.92000n    3.8878  
    2.93000n    3.8886  
    2.94000n    3.8893  
    2.95000n    3.8900  
    2.96000n    3.8907  
    2.97000n    3.8915  
    2.98000n    3.8922  
    2.99000n    3.8929  
    3.00000n    3.8937  
    3.01000n    3.8944  
    3.02000n    3.8951  
    3.03000n    3.8958  
    3.04000n    3.8966  
    3.05000n    3.8973  
    3.06000n    3.8980  
    3.07000n    3.8987  
    3.08000n    3.8995  
    3.09000n    3.9002  
    3.10000n    3.9009  
    3.11000n    3.9016  
    3.12000n    3.9024  
    3.13000n    3.9031  
    3.14000n    3.9038  
    3.15000n    3.9046  
    3.16000n    3.9053  
    3.17000n    3.9060  
    3.18000n    3.9067  
    3.19000n    3.9075  
    3.20000n    3.9082  
    3.21000n    3.9089  
    3.22000n    3.9096  
    3.23000n    3.9104  
    3.24000n    3.9111  
    3.25000n    3.9118  
    3.26000n    3.9126  
    3.27000n    3.9133  
    3.28000n    3.9140  
    3.29000n    3.9147  
    3.30000n    3.9155  
    3.31000n    3.9162  
    3.32000n    3.9169  
    3.33000n    3.9176  
    3.34000n    3.9181  
    3.35000n    3.9185  
    3.36000n    3.9189  
    3.37000n    3.9194  
    3.38000n    3.9198  
    3.39000n    3.9202  
    3.40000n    3.9207  
    3.41000n    3.9211  
    3.42000n    3.9215  
    3.43000n    3.9219  
    3.44000n    3.9224  
    3.45000n    3.9228  
    3.46000n    3.9232  
    3.47000n    3.9237  
    3.48000n    3.9241  
    3.49000n    3.9245  
    3.50000n    3.9250  
    3.51000n    3.9254  
    3.52000n    3.9258  
    3.53000n    3.9263  
    3.54000n    3.9267  
    3.55000n    3.9271  
    3.56000n    3.9275  
    3.57000n    3.9280  
    3.58000n    3.9284  
    3.59000n    3.9288  
    3.60000n    3.9293  
    3.61000n    3.9297  
    3.62000n    3.9301  
    3.63000n    3.9306  
    3.64000n    3.9310  
    3.65000n    3.9314  
    3.66000n    3.9318  
    3.67000n    3.9323  
    3.68000n    3.9327  
    3.69000n    3.9331  
    3.70000n    3.9336  
    3.71000n    3.9340  
    3.72000n    3.9344  
    3.73000n    3.9349  
    3.74000n    3.9353  
    3.75000n    3.9357  
    3.76000n    3.9361  
    3.77000n    3.9366  
    3.78000n    3.9370  
    3.79000n    3.9374  
    3.80000n    3.9377  
    3.81000n    3.9379  
    3.82000n    3.9382  
    3.83000n    3.9385  
    3.84000n    3.9388  
    3.85000n    3.9391  
    3.86000n    3.9393  
    3.87000n    3.9396  
    3.88000n    3.9399  
    3.89000n    3.9402  
    3.90000n    3.9405  
    3.91000n    3.9408  
    3.92000n    3.9410  
    3.93000n    3.9413  
    3.94000n    3.9416  
    3.95000n    3.9419  
    3.96000n    3.9422  
    3.97000n    3.9424  
    3.98000n    3.9427  
    3.99000n    3.9430  
    4.00000n    3.9433  
    4.01000n    3.9436  
    4.02000n    3.9439  
    4.03000n    3.9441  
    4.04000n    3.9444  
    4.05000n    3.9447  
    4.06000n    3.9450  
    4.07000n    3.9453  
    4.08000n    3.9455  
    4.09000n    3.9458  
    4.10000n    3.9461  
    4.11000n    3.9464  
    4.12000n    3.9467  
    4.13000n    3.9469  
    4.14000n    3.9472  
    4.15000n    3.9475  
    4.16000n    3.9478  
    4.17000n    3.9481  
    4.18000n    3.9484  
    4.19000n    3.9486  
    4.20000n    3.9489  
    4.21000n    3.9492  
    4.22000n    3.9495  
    4.23000n    3.9498  
    4.24000n    3.9500  
    4.25000n    3.9503  
    4.26000n    3.9506  
    4.27000n    3.9509  
    4.28000n    3.9512  
    4.29000n    3.9514  
    4.30000n    3.9517  
    4.31000n    3.9519  
    4.32000n    3.9521  
    4.33000n    3.9523  
    4.34000n    3.9525  
    4.35000n    3.9527  
    4.36000n    3.9529  
    4.37000n    3.9531  
    4.38000n    3.9533  
    4.39000n    3.9535  
    4.40000n    3.9537  
    4.41000n    3.9539  
    4.42000n    3.9541  
    4.43000n    3.9543  
    4.44000n    3.9544  
    4.45000n    3.9546  
    4.46000n    3.9548  
    4.47000n    3.9550  
    4.48000n    3.9552  
    4.49000n    3.9554  
    4.50000n    3.9556  
    4.51000n    3.9558  
    4.52000n    3.9560  
    4.53000n    3.9562  
    4.54000n    3.9564  
    4.55000n    3.9566  
    4.56000n    3.9568  
    4.57000n    3.9570  
    4.58000n    3.9572  
    4.59000n    3.9574  
    4.60000n    3.9576  
    4.61000n    3.9578  
    4.62000n    3.9580  
    4.63000n    3.9582  
    4.64000n    3.9584  
    4.65000n    3.9586  
    4.66000n    3.9588  
    4.67000n    3.9590  
    4.68000n    3.9591  
    4.69000n    3.9593  
    4.70000n    3.9595  
    4.71000n    3.9597  
    4.72000n    3.9599  
    4.73000n    3.9601  
    4.74000n    3.9603  
    4.75000n    3.9605  
    4.76000n    3.9607  
    4.77000n    3.9609  
    4.78000n    3.9611  
    4.79000n    3.9613  
    4.80000n    3.9615  
    4.81000n    3.9617  
    4.82000n    3.9619  
    4.83000n    3.9621  
    4.84000n    3.9623  
    4.85000n    3.9625  
    4.86000n    3.9627  
    4.87000n    3.9629  
    4.88000n    3.9631  
    4.89000n    3.9632  
    4.90000n    3.9634  
    4.91000n    3.9635  
    4.92000n    3.9636  
    4.93000n    3.9638  
    4.94000n    3.9639  
    4.95000n    3.9640  
    4.96000n    3.9642  
    4.97000n    3.9643  
    4.98000n    3.9645  
    4.99000n    3.9646  
    5.00000n    3.9647  
    5.01000n    3.9649  
    5.02000n    3.9650  
    5.03000n    3.9651  
    5.04000n    3.9653  
    5.05000n    3.9654  
    5.06000n    3.9656  
    5.07000n    3.9657  
    5.08000n    3.9658  
    5.09000n    3.9660  
    5.10000n    3.9661  
    5.11000n    3.9663  
    5.12000n    3.9664  
    5.13000n    3.9665  
    5.14000n    3.9667  
    5.15000n    3.9668  
    5.16000n    3.9669  
    5.17000n    3.9671  
    5.18000n    3.9672  
    5.19000n    3.9674  
    5.20000n    3.9675  
    5.21000n    3.9676  
    5.22000n    3.9678  
    5.23000n    3.9679  
    5.24000n    3.9680  
    5.25000n    3.9682  
    5.26000n    3.9683  
    5.27000n    3.9685  
    5.28000n    3.9686  
    5.29000n    3.9687  
    5.30000n    3.9689  
    5.31000n    3.9690  
    5.32000n    3.9691  
    5.33000n    3.9693  
    5.34000n    3.9694  
    5.35000n    3.9696  
    5.36000n    3.9697  
    5.37000n    3.9698  
    5.38000n    3.9700  
    5.39000n    3.9701  
    5.40000n    3.9702  
    5.41000n    3.9704  
    5.42000n    3.9705  
    5.43000n    3.9707  
    5.44000n    3.9708  
    5.45000n    3.9709  
    5.46000n    3.9711  
    5.47000n    3.9712  
    5.48000n    3.9713  
    5.49000n    3.9715  
    5.50000n    3.9716  
    5.51000n    3.9718  
    5.52000n    3.9719  
    5.53000n    3.9720  
    5.54000n    3.9722  
    5.55000n    3.9723  
    5.56000n    3.9724  
    5.57000n    3.9726  
    5.58000n    3.9727  
    5.59000n    3.9728  
    5.60000n    3.9729  
    5.61000n    3.9730  
    5.62000n    3.9731  
    5.63000n    3.9732  
    5.64000n    3.9733  
    5.65000n    3.9734  
    5.66000n    3.9735  
    5.67000n    3.9736  
    5.68000n    3.9737  
    5.69000n    3.9738  
    5.70000n    3.9739  
    5.71000n    3.9740  
    5.72000n    3.9741  
    5.73000n    3.9742  
    5.74000n    3.9743  
    5.75000n    3.9743  
    5.76000n    3.9744  
    5.77000n    3.9745  
    5.78000n    3.9746  
    5.79000n    3.9747  
    5.80000n    3.9748  
    5.81000n    3.9749  
    5.82000n    3.9750  
    5.83000n    3.9751  
    5.84000n    3.9752  
    5.85000n    3.9753  
    5.86000n    3.9754  
    5.87000n    3.9755  
    5.88000n    3.9756  
    5.89000n    3.9757  
    5.90000n    3.9758  
    5.91000n    3.9759  
    5.92000n    3.9760  
    5.93000n    3.9761  
    5.94000n    3.9762  
    5.95000n    3.9763  
    5.96000n    3.9764  
    5.97000n    3.9765  
    5.98000n    3.9765  
    5.99000n    3.9766  
    6.00000n    3.9767  
    6.01000n    3.9768  
    6.02000n    3.9769  
    6.03000n    3.9770  
    6.04000n    3.9771  
    6.05000n    3.9772  
    6.06000n    3.9773  
    6.07000n    3.9774  
    6.08000n    3.9775  
    6.09000n    3.9776  
    6.10000n    3.9777  
    6.11000n    3.9778  
    6.12000n    3.9779  
    6.13000n    3.9780  
    6.14000n    3.9781  
    6.15000n    3.9782  
    6.16000n    3.9783  
    6.17000n    3.9784  
    6.18000n    3.9785  
    6.19000n    3.9786  
    6.20000n    3.9786  
    6.21000n    3.9787  
    6.22000n    3.9788  
    6.23000n    3.9789  
    6.24000n    3.9790  
    6.25000n    3.9791  
    6.26000n    3.9792  
    6.27000n    3.9793  
    6.28000n    3.9794  
    6.29000n    3.9795  
    6.30000n    3.9796  
    6.31000n    3.9797  
    6.32000n    3.9798  
    6.33000n    3.9799  
    6.34000n    3.9800  
    6.35000n    3.9801  
    6.36000n    3.9802  
    6.37000n    3.9803  
    6.38000n    3.9804  
    6.39000n    3.9805  
    6.40000n    3.9806  
    6.41000n    3.9807  
    6.42000n    3.9807  
    6.43000n    3.9808  
    6.44000n    3.9809  
    6.45000n    3.9810  
    6.46000n    3.9810  
    6.47000n    3.9811  
    6.48000n    3.9811  
    6.49000n    3.9812  
    6.50000n    3.9813  
    6.51000n    3.9813  
    6.52000n    3.9814  
    6.53000n    3.9815  
    6.54000n    3.9815  
    6.55000n    3.9816  
    6.56000n    3.9817  
    6.57000n    3.9817  
    6.58000n    3.9818  
    6.59000n    3.9819  
    6.60000n    3.9819  
    6.61000n    3.9820  
    6.62000n    3.9821  
    6.63000n    3.9821  
    6.64000n    3.9822  
    6.65000n    3.9822  
    6.66000n    3.9823  
    6.67000n    3.9824  
    6.68000n    3.9824  
    6.69000n    3.9825  
    6.70000n    3.9826  
    6.71000n    3.9826  
    6.72000n    3.9827  
    6.73000n    3.9828  
    6.74000n    3.9828  
    6.75000n    3.9829  
    6.76000n    3.9830  
    6.77000n    3.9830  
    6.78000n    3.9831  
    6.79000n    3.9831  
    6.80000n    3.9832  
    6.81000n    3.9833  
    6.82000n    3.9833  
    6.83000n    3.9834  
    6.84000n    3.9835  
    6.85000n    3.9835  
    6.86000n    3.9836  
    6.87000n    3.9837  
    6.88000n    3.9837  
    6.89000n    3.9838  
    6.90000n    3.9839  
    6.91000n    3.9839  
    6.92000n    3.9840  
    6.93000n    3.9841  
    6.94000n    3.9841  
    6.95000n    3.9842  
    6.96000n    3.9842  
    6.97000n    3.9843  
    6.98000n    3.9844  
    6.99000n    3.9844  
    7.00000n    3.9845  
    7.01000n    3.9846  
    7.02000n    3.9846  
    7.03000n    3.9847  
    7.04000n    3.9848  
    7.05000n    3.9848  
    7.06000n    3.9849  
    7.07000n    3.9850  
    7.08000n    3.9850  
    7.09000n    3.9851  
    7.10000n    3.9852  
    7.11000n    3.9852  
    7.12000n    3.9853  
    7.13000n    3.9853  
    7.14000n    3.9854  
    7.15000n    3.9855  
    7.16000n    3.9855  
    7.17000n    3.9856  
    7.18000n    3.9857  
    7.19000n    3.9857  
    7.20000n    3.9858  
    7.21000n    3.9859  
    7.22000n    3.9859  
    7.23000n    3.9860  
    7.24000n    3.9861  
    7.25000n    3.9861  
    7.26000n    3.9862  
    7.27000n    3.9862  
    7.28000n    3.9863  
    7.29000n    3.9864  
    7.30000n    3.9864  
    7.31000n    3.9865  
    7.32000n    3.9866  
    7.33000n    3.9866  
    7.34000n    3.9867  
    7.35000n    3.9868  
    7.36000n    3.9868  
    7.37000n    3.9868  
    7.38000n    3.9869  
    7.39000n    3.9869  
    7.40000n    3.9870  
    7.41000n    3.9870  
    7.42000n    3.9871  
    7.43000n    3.9871  
    7.44000n    3.9871  
    7.45000n    3.9872  
    7.46000n    3.9872  
    7.47000n    3.9873  
    7.48000n    3.9873  
    7.49000n    3.9874  
    7.50000n    3.9874  
    7.51000n    3.9875  
    7.52000n    3.9875  
    7.53000n    3.9875  
    7.54000n    3.9876  
    7.55000n    3.9876  
    7.56000n    3.9877  
    7.57000n    3.9877  
    7.58000n    3.9878  
    7.59000n    3.9878  
    7.60000n    3.9878  
    7.61000n    3.9879  
    7.62000n    3.9879  
    7.63000n    3.9880  
    7.64000n    3.9880  
    7.65000n    3.9881  
    7.66000n    3.9881  
    7.67000n    3.9881  
    7.68000n    3.9882  
    7.69000n    3.9882  
    7.70000n    3.9883  
    7.71000n    3.9883  
    7.72000n    3.9884  
    7.73000n    3.9884  
    7.74000n    3.9885  
    7.75000n    3.9885  
    7.76000n    3.9885  
    7.77000n    3.9886  
    7.78000n    3.9886  
    7.79000n    3.9887  
    7.80000n    3.9887  
    7.81000n    3.9888  
    7.82000n    3.9888  
    7.83000n    3.9888  
    7.84000n    3.9889  
    7.85000n    3.9889  
    7.86000n    3.9890  
    7.87000n    3.9890  
    7.88000n    3.9891  
    7.89000n    3.9891  
    7.90000n    3.9891  
    7.91000n    3.9892  
    7.92000n    3.9892  
    7.93000n    3.9893  
    7.94000n    3.9893  
    7.95000n    3.9894  
    7.96000n    3.9894  
    7.97000n    3.9894  
    7.98000n    3.9895  
    7.99000n    3.9895  
    8.00000n    3.9896  
    8.01000n    3.9896  
    8.02000n    3.9897  
    8.03000n    3.9897  
    8.04000n    3.9898  
    8.05000n    3.9898  
    8.06000n    3.9898  
    8.07000n    3.9899  
    8.08000n    3.9899  
    8.09000n    3.9900  
    8.10000n    3.9900  
    8.11000n    3.9901  
    8.12000n    3.9901  
    8.13000n    3.9901  
    8.14000n    3.9902  
    8.15000n    3.9902  
    8.16000n    3.9903  
    8.17000n    3.9903  
    8.18000n    3.9904  
    8.19000n    3.9904  
    8.20000n    3.9904  
    8.21000n    3.9905  
    8.22000n    3.9905  
    8.23000n    3.9906  
    8.24000n    3.9906  
    8.25000n    3.9907  
    8.26000n    3.9907  
    8.27000n    3.9908  
    8.28000n    3.9908  
    8.29000n    3.9908  
    8.30000n    3.9909  
    8.31000n    3.9909  
    8.32000n    3.9910  
    8.33000n    3.9910  
    8.34000n    3.9911  
    8.35000n    3.9911  
    8.36000n    3.9911  
    8.37000n    3.9912  
    8.38000n    3.9912  
    8.39000n    3.9912  
    8.40000n    3.9912  
    8.41000n    3.9913  
    8.42000n    3.9913  
    8.43000n    3.9913  
    8.44000n    3.9914  
    8.45000n    3.9914  
    8.46000n    3.9914  
    8.47000n    3.9914  
    8.48000n    3.9915  
    8.49000n    3.9915  
    8.50000n    3.9915  
    8.51000n    3.9916  
    8.52000n    3.9916  
    8.53000n    3.9916  
    8.54000n    3.9916  
    8.55000n    3.9917  
    8.56000n    3.9917  
    8.57000n    3.9917  
    8.58000n    3.9918  
    8.59000n    3.9918  
    8.60000n    3.9918  
    8.61000n    3.9918  
    8.62000n    3.9919  
    8.63000n    3.9919  
    8.64000n    3.9919  
    8.65000n    3.9920  
    8.66000n    3.9920  
    8.67000n    3.9920  
    8.68000n    3.9920  
    8.69000n    3.9921  
    8.70000n    3.9921  
    8.71000n    3.9921  
    8.72000n    3.9922  
    8.73000n    3.9922  
    8.74000n    3.9922  
    8.75000n    3.9922  
    8.76000n    3.9923  
    8.77000n    3.9923  
    8.78000n    3.9923  
    8.79000n    3.9924  
    8.80000n    3.9924  
    8.81000n    3.9924  
    8.82000n    3.9924  
    8.83000n    3.9925  
    8.84000n    3.9925  
    8.85000n    3.9925  
    8.86000n    3.9926  
    8.87000n    3.9926  
    8.88000n    3.9926  
    8.89000n    3.9926  
    8.90000n    3.9927  
    8.91000n    3.9927  
    8.92000n    3.9927  
    8.93000n    3.9928  
    8.94000n    3.9928  
    8.95000n    3.9928  
    8.96000n    3.9929  
    8.97000n    3.9929  
    8.98000n    3.9929  
    8.99000n    3.9929  
    9.00000n    3.9930  
    9.01000n    3.9930  
    9.02000n    3.9930  
    9.03000n    3.9931  
    9.04000n    3.9931  
    9.05000n    3.9931  
    9.06000n    3.9931  
    9.07000n    3.9932  
    9.08000n    3.9932  
    9.09000n    3.9932  
    9.10000n    3.9933  
    9.11000n    3.9933  
    9.12000n    3.9933  
    9.13000n    3.9933  
    9.14000n    3.9934  
    9.15000n    3.9934  
    9.16000n    3.9934  
    9.17000n    3.9935  
    9.18000n    3.9935  
    9.19000n    3.9935  
    9.20000n    3.9935  
    9.21000n    3.9936  
    9.22000n    3.9936  
    9.23000n    3.9936  
    9.24000n    3.9937  
    9.25000n    3.9937  
    9.26000n    3.9937  
    9.27000n    3.9937  
    9.28000n    3.9938  
    9.29000n    3.9938  
    9.30000n    3.9938  
    9.31000n    3.9939  
    9.32000n    3.9939  
    9.33000n    3.9939  
    9.34000n    3.9939  
    9.35000n    3.9940  
    9.36000n    3.9940  
    9.37000n    3.9940  
    9.38000n    3.9940  
    9.39000n    3.9941  
    9.40000n    3.9941  
    9.41000n    3.9941  
    9.42000n    3.9941  
    9.43000n    3.9941  
    9.44000n    3.9941  
    9.45000n    3.9942  
    9.46000n    3.9942  
    9.47000n    3.9942  
    9.48000n    3.9942  
    9.49000n    3.9942  
    9.50000n    3.9943  
    9.51000n    3.9943  
    9.52000n    3.9943  
    9.53000n    3.9943  
    9.54000n    3.9943  
    9.55000n    3.9944  
    9.56000n    3.9944  
    9.57000n    3.9944  
    9.58000n    3.9944  
    9.59000n    3.9944  
    9.60000n    3.9945  
    9.61000n    3.9945  
    9.62000n    3.9945  
    9.63000n    3.9945  
    9.64000n    3.9945  
    9.65000n    3.9946  
    9.66000n    3.9946  
    9.67000n    3.9946  
    9.68000n    3.9946  
    9.69000n    3.9946  
    9.70000n    3.9947  
    9.71000n    3.9947  
    9.72000n    3.9947  
    9.73000n    3.9947  
    9.74000n    3.9947  
    9.75000n    3.9948  
    9.76000n    3.9948  
    9.77000n    3.9948  
    9.78000n    3.9948  
    9.79000n    3.9948  
    9.80000n    3.9948  
    9.81000n    3.9949  
    9.82000n    3.9949  
    9.83000n    3.9949  
    9.84000n    3.9949  
    9.85000n    3.9949  
    9.86000n    3.9950  
    9.87000n    3.9950  
    9.88000n    3.9950  
    9.89000n    3.9950  
    9.90000n    3.9950  
    9.91000n    3.9951  
    9.92000n    3.9951  
    9.93000n    3.9951  
    9.94000n    3.9951  
    9.95000n    3.9951  
    9.96000n    3.9952  
    9.97000n    3.9952  
    9.98000n    3.9952  
    9.99000n    3.9952  
   10.00000n    3.9952  
   10.01000n    3.9953  
   10.02000n    3.9953  
   10.03000n    3.9953  
   10.04000n    3.9953  
   10.05000n    3.9953  
   10.06000n    3.9954  
   10.07000n    3.9954  
   10.08000n    3.9954  
   10.09000n    3.9954  
   10.10000n    3.9954  
   10.11000n    3.9955  
   10.12000n    3.9955  
   10.13000n    3.9955  
   10.14000n    3.9955  
   10.15000n    3.9955  
   10.16000n    3.9956  
   10.17000n    3.9956  
   10.18000n    3.9956  
   10.19000n    3.9956  
   10.20000n    3.9956  
   10.21000n    3.9956  
   10.22000n    3.9957  
   10.23000n    3.9957  
   10.24000n    3.9957  
   10.25000n    3.9957  
   10.26000n    3.9957  
   10.27000n    3.9958  
   10.28000n    3.9958  
   10.29000n    3.9958  
   10.30000n    3.9958  
   10.31000n    3.9958  
   10.32000n    3.9959  
   10.33000n    3.9959  
   10.34000n    3.9959  
   10.35000n    3.9959  
   10.36000n    3.9959  
   10.37000n    3.9959  
   10.38000n    3.9960  
   10.39000n    3.9960  
   10.40000n    3.9960  
   10.41000n    3.9960  
   10.42000n    3.9960  
   10.43000n    3.9960  
   10.44000n    3.9960  
   10.45000n    3.9960  
   10.46000n    3.9961  
   10.47000n    3.9961  
   10.48000n    3.9961  
   10.49000n    3.9961  
   10.50000n    3.9961  
   10.51000n    3.9961  
   10.52000n    3.9961  
   10.53000n    3.9962  
   10.54000n    3.9962  
   10.55000n    3.9962  
   10.56000n    3.9962  
   10.57000n    3.9962  
   10.58000n    3.9962  
   10.59000n    3.9962  
   10.60000n    3.9962  
   10.61000n    3.9963  
   10.62000n    3.9963  
   10.63000n    3.9963  
   10.64000n    3.9963  
[...]
   12.79000n    3.9983  
   12.80000n    3.9983  
   12.81000n    3.9983  
   12.82000n    3.9984  
   12.83000n    3.9984  
   12.84000n    3.9984  
   12.85000n    3.9984  
   12.86000n    3.9984  
   12.87000n    3.9984  
   12.88000n    3.9984  
   12.89000n    3.9984  
   12.90000n    3.9984  
   12.91000n    3.9984  
   12.92000n    3.9984  
   12.93000n    3.9984  
   12.94000n    3.9984  
   12.95000n    3.9984  
   12.96000n    3.9984  
   12.97000n    3.9984  
   12.98000n    3.9985  
   12.99000n    3.9985  
   13.00000n    3.9985  
   13.01000n    3.9985  
   13.02000n    3.9985  
   13.03000n    3.9985  
   13.04000n    3.9985  
   13.05000n    3.9985  
   13.06000n    3.9985  
   13.07000n    3.9985  
   13.08000n    3.9985  
   13.09000n    3.9985  
   13.10000n    3.9985  
   13.11000n    3.9985  
   13.12000n    3.9985  
   13.13000n    3.9985  
   13.14000n    3.9986  
   13.15000n    3.9986  
   13.16000n    3.9986  
   13.17000n    3.9986  
   13.18000n    3.9986  
   13.19000n    3.9986  
   13.20000n    3.9986  
   13.21000n    3.9986  
   13.22000n    3.9986  
   13.23000n    3.9986  
   13.24000n    3.9986  
   13.25000n    3.9986  
   13.26000n    3.9986  
   13.27000n    3.9986  
   13.28000n    3.9986  
   13.29000n    3.9986  
   13.30000n    3.9986  
   13.31000n    3.9987  
   13.32000n    3.9987  
   13.33000n    3.9987  
   13.34000n    3.9987  
   13.35000n    3.9987  
   13.36000n    3.9987  
   13.37000n    3.9987  
   13.38000n    3.9987  
   13.39000n    3.9987  
   13.40000n    3.9987  
   13.41000n    3.9987  
   13.42000n    3.9987  
   13.43000n    3.9987  
   13.44000n    3.9987  
   13.45000n    3.9987  
   13.46000n    3.9987  
   13.47000n    3.9987  
   13.48000n    3.9987  
   13.49000n    3.9987  
   13.50000n    3.9987  
   13.51000n    3.9987  
   13.52000n    3.9988  
   13.53000n    3.9988  
   13.54000n    3.9988  
   13.55000n    3.9988  
   13.56000n    3.9988  
   13.57000n    3.9988  
   13.58000n    3.9988  
   13.59000n    3.9988  
   13.60000n    3.9988  
   13.61000n    3.9988  
   13.62000n    3.9988  
   13.63000n    3.9988  
   13.64000n    3.9988  
   13.65000n    3.9988  
   13.66000n    3.9988  
   13.67000n    3.9988  
   13.68000n    3.9988  
   13.69000n    3.9988  
   13.70000n    3.9988  
   13.71000n    3.9988  
   13.72000n    3.9988  
   13.73000n    3.9988  
   13.74000n    3.9988  
   13.75000n    3.9988  
   13.76000n    3.9989  
   13.77000n    3.9989  
   13.78000n    3.9989  
   13.79000n    3.9989  
   13.80000n    3.9989  
   13.81000n    3.9989  
   13.82000n    3.9989  
   13.83000n    3.9989  
   13.84000n    3.9989  
   13.85000n    3.9989  
   13.86000n    3.9989  
   13.87000n    3.9989  
   13.88000n    3.9989  
   13.89000n    3.9989  
   13.90000n    3.9989  
   13.91000n    3.9989  
   13.92000n    3.9989  
   13.93000n    3.9989  
   13.94000n    3.9989  
   13.95000n    3.9989  
   13.96000n    3.9989  
   13.97000n    3.9989  
   13.98000n    3.9989  
   13.99000n    3.9990  
   14.00000n    3.9990  
   14.01000n    3.9990  
   14.02000n    3.9990  
   14.03000n    3.9990  
   14.04000n    3.9990  
   14.05000n    3.9990  
   14.06000n    3.9990  
   14.07000n    3.9990  
   14.08000n    3.9990  
   14.09000n    3.9990  
   14.10000n    3.9990  
   14.11000n    3.9990  
   14.12000n    3.9990  
   14.13000n    3.9990  
   14.14000n    3.9990  
   14.15000n    3.9990  
   14.16000n    3.9990  
   14.17000n    3.9990  
   14.18000n    3.9990  
   14.19000n    3.9990  
   14.20000n    3.9990  
   14.21000n    3.9990  
   14.22000n    3.9990  
   14.23000n    3.9991  
   14.24000n    3.9991  
   14.25000n    3.9991  
   14.26000n    3.9991  
   14.27000n    3.9991  
   14.28000n    3.9991  
   14.29000n    3.9991  
   14.30000n    3.9991  
   14.31000n    3.9991  
   14.32000n    3.9991  
   14.33000n    3.9991  
   14.34000n    3.9991  
   14.35000n    3.9991  
   14.36000n    3.9991  
   14.37000n    3.9991  
   14.38000n    3.9991  
   14.39000n    3.9991  
   14.40000n    3.9991  
   14.41000n    3.9991  
   14.42000n    3.9991  
   14.43000n    3.9991  
   14.44000n    3.9991  
   14.45000n    3.9991  
   14.46000n    3.9991  
   14.47000n    3.9991  
   14.48000n    3.9991  
   14.49000n    3.9991  
   14.50000n    3.9991  
   14.51000n    3.9991  
   14.52000n    3.9992  
   14.53000n    3.9992  
   14.54000n    3.9992  
   14.55000n    3.9992  
   14.56000n    3.9992  
   14.57000n    3.9992  
   14.58000n    3.9992  
   14.59000n    3.9992  
   14.60000n    3.9992  
   14.61000n    3.9992  
   14.62000n    3.9992  
   14.63000n    3.9992  
   14.64000n    3.9992  
   14.65000n    3.9992  
   14.66000n    3.9992  
   14.67000n    3.9992  
   14.68000n    3.9992  
   14.69000n    3.9992  
   14.70000n    3.9992  
   14.71000n    3.9992  
   14.72000n    3.9992  
   14.73000n    3.9992  
   14.74000n    3.9992  
   14.75000n    3.9992  
   14.76000n    3.9992  
   14.77000n    3.9992  
   14.78000n    3.9992  
   14.79000n    3.9992  
   14.80000n    3.9992  
   14.81000n    3.9992  
   14.82000n    3.9992  
   14.83000n    3.9992  
   14.84000n    3.9992  
   14.85000n    3.9992  
   14.86000n    3.9992  
   14.87000n    3.9993  
   14.88000n    3.9993  
   14.89000n    3.9993  
   14.90000n    3.9993  
   14.91000n    3.9993  
   14.92000n    3.9993  
   14.93000n    3.9993  
   14.94000n    3.9993  
   14.95000n    3.9993  
   14.96000n    3.9993  
   14.97000n    3.9993  
   14.98000n    3.9993  
   14.99000n    3.9993  
   15.00000n    3.9993  
   15.01000n    3.9993  
   15.02000n    3.9993  
   15.03000n    3.9993  
   15.04000n    3.9993  
   15.05000n    3.9993  
   15.06000n    3.9993  
   15.07000n    3.9993  
   15.08000n    3.9993  
   15.09000n    3.9993  
   15.10000n    3.9993  
   15.11000n    3.9993  
   15.12000n    3.9993  
   15.13000n    3.9993  
   15.14000n    3.9993  
   15.15000n    3.9993  
   15.16000n    3.9993  
   15.17000n    3.9993  
   15.18000n    3.9993  
   15.19000n    3.9993  
   15.20000n    3.9993  
   15.21000n    3.9993  
   15.22000n    3.9994  
   15.23000n    3.9994  
   15.24000n    3.9994  
   15.25000n    3.9994  
   15.26000n    3.9994  
   15.27000n    3.9994  
   15.28000n    3.9994  
   15.29000n    3.9994  
   15.30000n    3.9994  
   15.31000n    3.9994  
   15.32000n    3.9994  
   15.33000n    3.9994  
   15.34000n    3.9994  
   15.35000n    3.9994  
   15.36000n    3.9994  
   15.37000n    3.9994  
   15.38000n    3.9994  
   15.39000n    3.9994  
   15.40000n    3.9994  
   15.41000n    3.9994  
   15.42000n    3.9994  
   15.43000n    3.9994  
   15.44000n    3.9994  
   15.45000n    3.9994  
   15.46000n    3.9994  
   15.47000n    3.9994  
   15.48000n    3.9994  
   15.49000n    3.9994  
   15.50000n    3.9994  
   15.51000n    3.9994  
   15.52000n    3.9994  
   15.53000n    3.9994  
   15.54000n    3.9994  
   15.55000n    3.9994  
   15.56000n    3.9994  
   15.57000n    3.9994  
   15.58000n    3.9994  
   15.59000n    3.9994  
   15.60000n    3.9994  
   15.61000n    3.9994  
   15.62000n    3.9994  
   15.63000n    3.9994  
   15.64000n    3.9994  
   15.65000n    3.9994  
   15.66000n    3.9994  
   15.67000n    3.9995  
   15.68000n    3.9995  
   15.69000n    3.9995  
   15.70000n    3.9995  
   15.71000n    3.9995  
   15.72000n    3.9995  
   15.73000n    3.9995  
   15.74000n    3.9995  
   15.75000n    3.9995  
   15.76000n    3.9995  
   15.77000n    3.9995  
   15.78000n    3.9995  
   15.79000n    3.9995  
   15.80000n    3.9995  
   15.81000n    3.9995  
   15.82000n    3.9995  
   15.83000n    3.9995  
   15.84000n    3.9995  
   15.85000n    3.9995  
   15.86000n    3.9995  
   15.87000n    3.9995  
   15.88000n    3.9995  
   15.89000n    3.9995  
   15.90000n    3.9995  
   15.91000n    3.9995  
   15.92000n    3.9995  
   15.93000n    3.9995  
   15.94000n    3.9995  
   15.95000n    3.9995  
   15.96000n    3.9995  
   15.97000n    3.9995  
   15.98000n    3.9995  
   15.99000n    3.9995  
   16.00000n    3.9995  
   16.01000n    3.9995  
   16.02000n    3.9995  
   16.03000n    3.9995  
   16.04000n    3.9995  
   16.05000n    3.9995  
   16.06000n    3.9995  
   16.07000n    3.9995  
   16.08000n    3.9995  
   16.09000n    3.9995  
   16.10000n    3.9995  
   16.11000n    3.9995  
   16.12000n    3.9995  
   16.13000n    3.9995  
   16.14000n    3.9995  
   16.15000n    3.9995  
   16.16000n    3.9995  
   16.17000n    3.9995  
   16.18000n    3.9996  
   16.19000n    3.9996  
   16.20000n    3.9996  
   16.21000n    3.9996  
   16.22000n    3.9996  
   16.23000n    3.9996  
   16.24000n    3.9996  
   16.25000n    3.9996  
   16.26000n    3.9996  
   16.27000n    3.9996  
   16.28000n    3.9996  
   16.29000n    3.9996  
   16.30000n    3.9996  
   16.31000n    3.9996  
   16.32000n    3.9996  
   16.33000n    3.9996  
   16.34000n    3.9996  
   16.35000n    3.9996  
   16.36000n    3.9996  
   16.37000n    3.9996  
   16.38000n    3.9996  
   16.39000n    3.9996  
   16.40000n    3.9996  
   16.41000n    3.9996  
   16.42000n    3.9996  
   16.43000n    3.9996  
   16.44000n    3.9996  
   16.45000n    3.9996  
   16.46000n    3.9996  
   16.47000n    3.9996  
   16.48000n    3.9996  
   16.49000n    3.9996  
   16.50000n    3.9996  
   16.51000n    3.9996  
   16.52000n    3.9996  
   16.53000n    3.9996  
   16.54000n    3.9996  
   16.55000n    3.9996  
   16.56000n    3.9996  
   16.57000n    3.9996  
   16.58000n    3.9996  
   16.59000n    3.9996  
   16.60000n    3.9996  
   16.61000n    3.9996  
   16.62000n    3.9996  
   16.63000n    3.9996  
   16.64000n    3.9996  
   16.65000n    3.9996  
   16.66000n    3.9996  
   16.67000n    3.9996  
   16.68000n    3.9996  
   16.69000n    3.9996  
   16.70000n    3.9996  
   16.71000n    3.9996  
   16.72000n    3.9996  
   16.73000n    3.9996  
   16.74000n    3.9996  
   16.75000n    3.9996  
   16.76000n    3.9996  
   16.77000n    3.9996  
   16.78000n    3.9996  
   16.79000n    3.9996  
   16.80000n    3.9996  
   16.81000n    3.9996  
   16.82000n    3.9996  
   16.83000n    3.9996  
   16.84000n    3.9996  
   16.85000n    3.9996  
   16.86000n    3.9997  
   16.87000n    3.9997  
   16.88000n    3.9997  
   16.89000n    3.9997  
   16.90000n    3.9997  
   16.91000n    3.9997  
   16.92000n    3.9997  
   16.93000n    3.9997  
   16.94000n    3.9997  
   16.95000n    3.9997  
   16.96000n    3.9997  
   16.97000n    3.9997  
   16.98000n    3.9997  
   16.99000n    3.9997  
   17.00000n    3.9997  
   17.01000n    3.9997  
   17.02000n    3.9997  
   17.03000n    3.9997  
   17.04000n    3.9997  
   17.05000n    3.9997  
   17.06000n    3.9997  
   17.07000n    3.9997  
   17.08000n    3.9997  
   17.09000n    3.9997  
   17.10000n    3.9997  
   17.11000n    3.9997  
   17.12000n    3.9997  
   17.13000n    3.9997  
   17.14000n    3.9997  
   17.15000n    3.9997  
   17.16000n    3.9997  
   17.17000n    3.9997  
   17.18000n    3.9997  
   17.19000n    3.9997  
   17.20000n    3.9997  
   17.21000n    3.9997  
   17.22000n    3.9997  
   17.23000n    3.9997  
   17.24000n    3.9997  
   17.25000n    3.9997  
   17.26000n    3.9997  
   17.27000n    3.9997  
   17.28000n    3.9997  
   17.29000n    3.9997  
   17.30000n    3.9997  
   17.31000n    3.9997  
   17.32000n    3.9997  
   17.33000n    3.9997  
   17.34000n    3.9997  
   17.35000n    3.9997  
   17.36000n    3.9997  
   17.37000n    3.9997  
   17.38000n    3.9997  
   17.39000n    3.9997  
   17.40000n    3.9997  
   17.41000n    3.9997  
   17.42000n    3.9997  
   17.43000n    3.9997  
   17.44000n    3.9997  
   17.45000n    3.9997  
   17.46000n    3.9997  
   17.47000n    3.9997  
   17.48000n    3.9997  
   17.49000n    3.9997  
   17.50000n    3.9997  
   17.51000n    3.9997  
   17.52000n    3.9997  
   17.53000n    3.9997  
   17.54000n    3.9997  
   17.55000n    3.9997  
   17.56000n    3.9997  
   17.57000n    3.9997  
   17.58000n    3.9997  
   17.59000n    3.9997  
   17.60000n    3.9997  
   17.61000n    3.9997  
   17.62000n    3.9997  
   17.63000n    3.9997  
   17.64000n    3.9997  
   17.65000n    3.9997  
   17.66000n    3.9997  
   17.67000n    3.9997  
   17.68000n    3.9997  
   17.69000n    3.9997  
   17.70000n    3.9997  
   17.71000n    3.9997  
   17.72000n    3.9997  
   17.73000n    3.9998  
   17.74000n    3.9998  
   17.75000n    3.9998  
   17.76000n    3.9998  
   17.77000n    3.9998  
   17.78000n    3.9998  
   17.79000n    3.9998  
   17.80000n    3.9998  
   17.81000n    3.9998  
   17.82000n    3.9998  
   17.83000n    3.9998  
   17.84000n    3.9998  
   17.85000n    3.9998  
   17.86000n    3.9998  
   17.87000n    3.9998  
   17.88000n    3.9998  
   17.89000n    3.9998  
   17.90000n    3.9998  
   17.91000n    3.9998  
   17.92000n    3.9998  
   17.93000n    3.9998  
   17.94000n    3.9998  
   17.95000n    3.9998  
   17.96000n    3.9998  
   17.97000n    3.9998  
   17.98000n    3.9998  
   17.99000n    3.9998  
   18.00000n    3.9998  
   18.01000n    3.9998  
   18.02000n    3.9998  
   18.03000n    3.9998  
   18.04000n    3.9998  
   18.05000n    3.9998  
   18.06000n    3.9998  
   18.07000n    3.9998  
   18.08000n    3.9998  
   18.09000n    3.9998  
   18.10000n    3.9998  
   18.11000n    3.9998  
   18.12000n    3.9998  
   18.13000n    3.9998  
   18.14000n    3.9998  
   18.15000n    3.9998  
   18.16000n    3.9998  
   18.17000n    3.9998  
   18.18000n    3.9998  
   18.19000n    3.9998  
   18.20000n    3.9998  
   18.21000n    3.9998  
   18.22000n    3.9998  
   18.23000n    3.9998  
   18.24000n    3.9998  
   18.25000n    3.9998  
   18.26000n    3.9998  
   18.27000n    3.9998  
   18.28000n    3.9998  
   18.29000n    3.9998  
   18.30000n    3.9998  
   18.31000n    3.9998  
   18.32000n    3.9998  
   18.33000n    3.9998  
   18.34000n    3.9998  
   18.35000n    3.9998  
   18.36000n    3.9998  
   18.37000n    3.9998  
   18.38000n    3.9998  
   18.39000n    3.9998  
   18.40000n    3.9998  
   18.41000n    3.9998  
   18.42000n    3.9998  
   18.43000n    3.9998  
   18.44000n    3.9998  
   18.45000n    3.9998  
   18.46000n    3.9998  
   18.47000n    3.9998  
   18.48000n    3.9998  
   18.49000n    3.9998  
   18.50000n    3.9998  
   18.51000n    3.9998  
   18.52000n    3.9998  
   18.53000n    3.9998  
   18.54000n    3.9998  
   18.55000n    3.9998  
   18.56000n    3.9998  
   18.57000n    3.9998  
   18.58000n    3.9998  
   18.59000n    3.9998  
   18.60000n    3.9998  
   18.61000n    3.9998  
   18.62000n    3.9998  
   18.63000n    3.9998  
   18.64000n    3.9998  
   18.65000n    3.9998  
   18.66000n    3.9998  
   18.67000n    3.9998  
   18.68000n    3.9998  
   18.69000n    3.9998  
   18.70000n    3.9998  
   18.71000n    3.9998  
   18.72000n    3.9998  
   18.73000n    3.9998  
   18.74000n    3.9998  
   18.75000n    3.9998  
   18.76000n    3.9998  
   18.77000n    3.9998  
   18.78000n    3.9998  
   18.79000n    3.9998  
   18.80000n    3.9998  
   18.81000n    3.9998  
   18.82000n    3.9998  
   18.83000n    3.9998  
   18.84000n    3.9998  
   18.85000n    3.9998  
   18.86000n    3.9998  
   18.87000n    3.9998  
   18.88000n    3.9998  
   18.89000n    3.9998  
   18.90000n    3.9998  
   18.91000n    3.9998  
   18.92000n    3.9998  
   18.93000n    3.9998  
   18.94000n    3.9998  
   18.95000n    3.9998  
   18.96000n    3.9998  
   18.97000n    3.9998  
   18.98000n    3.9998  
   18.99000n    3.9998  
   19.00000n    3.9998  
   19.01000n    3.9998  
   19.02000n    3.9998  
   19.03000n    3.9998  
   19.04000n    3.9998  
   19.05000n    3.9998  
   19.06000n    3.9998  
   19.07000n    3.9999  
   19.08000n    3.9999  
   19.09000n    3.9999  
   19.10000n    3.9999  
   19.11000n    3.9999  
   19.12000n    3.9999  
   19.13000n    3.9999  
   19.14000n    3.9999  
   19.15000n    3.9999  
   19.16000n    3.9999  
   19.17000n    3.9999  
   19.18000n    3.9999  
   19.19000n    3.9999  
   19.20000n    3.9999  
   19.21000n    3.9999  
   19.22000n    3.9999  
   19.23000n    3.9999  
   19.24000n    3.9999  
   19.25000n    3.9999  
   19.26000n    3.9999  
   19.27000n    3.9999  
   19.28000n    3.9999  
   19.29000n    3.9999  
   19.30000n    3.9999  
   19.31000n    3.9999  
   19.32000n    3.9999  
   19.33000n    3.9999  
   19.34000n    3.9999  
   19.35000n    3.9999  
   19.36000n    3.9999  
   19.37000n    3.9999  
   19.38000n    3.9999  
   19.39000n    3.9999  
   19.40000n    3.9999  
   19.41000n    3.9999  
   19.42000n    3.9999  
   19.43000n    3.9999  
   19.44000n    3.9999  
   19.45000n    3.9999  
   19.46000n    3.9999  
   19.47000n    3.9999  
   19.48000n    3.9999  
   19.49000n    3.9999  
   19.50000n    3.9999  
   19.51000n    3.9999  
   19.52000n    3.9999  
   19.53000n    3.9999  
   19.54000n    3.9999  
   19.55000n    3.9999  
   19.56000n    3.9999  
   19.57000n    3.9999  
   19.58000n    3.9999  
   19.59000n    3.9999  
   19.60000n    3.9999  
   19.61000n    3.9999  
   19.62000n    3.9999  
   19.63000n    3.9999  
   19.64000n    3.9999  
   19.65000n    3.9999  
   19.66000n    3.9999  
   19.67000n    3.9999  
   19.68000n    3.9999  
   19.69000n    3.9999  
   19.70000n    3.9999  
   19.71000n    3.9999  
   19.72000n    3.9999  
   19.73000n    3.9999  
   19.74000n    3.9999  
   19.75000n    3.9999  
   19.76000n    3.9999  
   19.77000n    3.9999  
   19.78000n    3.9999  
   19.79000n    3.9999  
   19.80000n    3.9999  
   19.81000n    3.9999  
   19.82000n    3.9999  
   19.83000n    3.9999  
   19.84000n    3.9999  
   19.85000n    3.9999  
   19.86000n    3.9999  
   19.87000n    3.9999  
   19.88000n    3.9999  
   19.89000n    3.9999  
   19.90000n    3.9999  
   19.91000n    3.9999  
   19.92000n    3.9999  
   19.93000n    3.9999  
   19.94000n    3.9999  
   19.95000n    3.9999  
   19.96000n    3.9999  
   19.97000n    3.9999  
   19.98000n    3.9999  
   19.99000n    3.9999  
   20.00000n    3.9999  
y

          ***** job concluded
 ******  
 *this file will describe the hspice of lab 2

 ****** job statistics summary tnom=  25.000 temp=  25.000 ******
  
  
 ******  Machine Information  ******
 CPU:
 model name	: Intel(R) Xeon(R) CPU E5-2699 v3 @ 2.30GHz
 cpu MHz	: 2299.998
  
 OS:
 Linux version 3.10.0-693.2.2.el7.x86_64 (builder@kbuilder.dev.centos.org) (gcc version 4.8.5 20150623 (Red Hat 4.8.5-16) (GCC) ) #1 SMP Tue Sep 12 22:26:13 UTC 2017


  ******  HSPICE Threads Information  ******

  Command Line Threads Count :     1
  Available CPU Count        :     8
  Actual Threads Count       :     1


  ******  Circuit Statistics  ******
  # nodes       =      56 # elements   =     109
  # resistors   =      54 # capacitors =      54 # inductors   =       0
  # mutual_inds =       0 # vccs       =       0 # vcvs        =       0
  # cccs        =       0 # ccvs       =       0 # volt_srcs   =       1
  # curr_srcs   =       0 # diodes     =       0 # bjts        =       0
  # jfets       =       0 # mosfets    =       0 # U elements  =       0
  # T elements  =       0 # W elements =       0 # B elements  =       0
  # S elements  =       0 # P elements =       0 # va device   =       0
  # vector_srcs =       0 # N elements =       0


  ******  Runtime Statistics (seconds)  ******

  analysis           time    # points   tot. iter  conv.iter
  op point           0.02           1           1
  transient          0.00        2001         110          55 rev=         2
  readin             0.01
  errchk             0.00
  setup              0.00
  output             0.00


           peak memory used        255.13 megabytes
           total cpu time            0.45 seconds
           total elapsed time        0.38 seconds
           job started at     16:55:02 03/04/2019
           job ended   at     16:55:02 03/04/2019


 lic: Release hspice token(s) 
 lic: total license checkout elapse time:        0.13(s)
