 ****** HSPICE -- L-2016.06-SP2-2 linux64 (Jan 24 2017) ******                  
  Copyright (c) 1986 - 2019 by Synopsys, Inc. All Rights Reserved.              
  This software and the associated documentation are proprietary
  to Synopsys, Inc. This software may only be used in accordance
  with the terms and conditions of a written license agreement with
  Synopsys, Inc. All other use, reproduction, or distribution of
  this software is strictly prohibited.
  Input File: Elmore.sp                                                         
  Command line options: /Linux/sw/request/synopsys/hspice_vL-2016.06-SP2-2/hspice/linux64/hspice -i Elmore.sp -o Elmore
 lic:  
 lic: FLEXlm: v11.2.1 
 lic: USER:   vprabhu              HOSTNAME: lcs-vc-linux-01 
 lic: HOSTID: 005056bc7b03         PID:      925 
 lic: Using FLEXlm license file: 
 lic: 27006@lcs-vc-license2.ad.syr.edu 
 lic: Checkout 1 hspice 
 lic: License/Maintenance for hspice will expire on 17-mar-2019/2017.12 
 lic: 1(in_use)/75(total) FLOATING license(s) on SERVER 27006@lcs-vc-license2.ad.syr.edu 
 lic:   
  **info** (Elmore.sp:4) DC voltage reset to initial transient source value in source 0:vs. new dc=0.0000D+00
  
      
 *****************************************************************
 ******  option summary
 ******
 runlvl  = 3         bypass  = 2.0000    
 **info** dc convergence successful at Newton-Raphson method 
1****** HSPICE -- L-2016.06-SP2-2 linux64 (Jan 24 2017) ******                  
 ******  
 *this file will describe the hspice of the given problem

 ****** operating point information tnom=  25.000 temp=  25.000 ******
 ****** operating point status is voltage   simulation time is     0.     
    node    =voltage      node    =voltage      node    =voltage

 +0:1       =   0.      0:2       =   0.      0:3       =   0.     
 +0:4       =   0.      0:5       =   0.      0:6       =   0.     
 +0:7       =   0.      0:8       =   0.      0:9       =   0.     
 +0:10      =   0.      0:vs      =   0.     

 ******
 *this file will describe the hspice of the given problem

 ****** transient analysis tnom=  25.000 temp=  25.000 ******
x

 time         voltage    voltage   
             vs         10         
    0.          0.         0.      
   10.00000p    0.         0.      
   20.00000p    0.         0.      
   30.00000p    0.         0.      
   40.00000p    0.         0.      
   50.00000p    0.         0.      
   60.00000p    0.         0.      
   70.00000p    0.         0.      
   80.00000p    0.         0.      
   90.00000p    0.         0.      
  100.00000p    0.         0.      
  110.00000p    0.         0.      
  120.00000p    0.         0.      
  130.00000p    0.         0.      
  140.00000p    0.         0.      
  150.00000p    0.         0.      
  160.00000p    0.         0.      
  170.00000p    0.         0.      
  180.00000p    0.         0.      
  190.00000p    0.         0.      
  200.00000p    0.         0.      
  210.00000p    0.         0.      
  220.00000p    0.         0.      
  230.00000p    0.         0.      
  240.00000p    0.         0.      
  250.00000p    0.         0.      
  260.00000p    0.         0.      
  270.00000p    0.         0.      
  280.00000p    0.         0.      
  290.00000p    0.         0.      
  300.00000p    0.         0.      
  310.00000p    0.         0.      
  320.00000p    0.         0.      
  330.00000p    0.         0.      
  340.00000p    0.         0.      
  350.00000p    0.         0.      
  360.00000p    0.         0.      
  370.00000p    0.         0.      
  380.00000p    0.         0.      
  390.00000p    0.         0.      
  400.00000p    0.         0.      
  410.00000p    0.         0.      
  420.00000p    0.         0.      
  430.00000p    0.         0.      
  440.00000p    0.         0.      
  450.00000p    0.         0.      
  460.00000p    0.         0.      
  470.00000p    0.         0.      
  480.00000p    0.         0.      
  490.00000p    0.         0.      
  500.00000p    0.         0.      
  510.00000p    0.         0.      
  520.00000p    0.         0.      
  530.00000p    0.         0.      
  540.00000p    0.         0.      
  550.00000p    0.         0.      
  560.00000p    0.         0.      
  570.00000p    0.         0.      
  580.00000p    0.         0.      
  590.00000p    0.         0.      
  600.00000p    0.         0.      
  610.00000p    0.         0.      
  620.00000p    0.         0.      
  630.00000p    0.         0.      
  640.00000p    0.         0.      
  650.00000p    0.         0.      
  660.00000p    0.         0.      
  670.00000p    0.         0.      
  680.00000p    0.         0.      
  690.00000p    0.         0.      
  700.00000p    0.         0.      
  710.00000p    0.         0.      
  720.00000p    0.         0.      
  730.00000p    0.         0.      
  740.00000p    0.         0.      
  750.00000p    0.         0.      
  760.00000p    0.         0.      
  770.00000p    0.         0.      
  780.00000p    0.         0.      
  790.00000p    0.         0.      
  800.00000p    0.         0.      
  810.00000p    0.         0.      
  820.00000p    0.         0.      
  830.00000p    0.         0.      
  840.00000p    0.         0.      
  850.00000p    0.         0.      
  860.00000p    0.         0.      
  870.00000p    0.         0.      
  880.00000p    0.         0.      
  890.00000p    0.         0.      
  900.00000p    0.         0.      
  910.00000p    0.         0.      
  920.00000p    0.         0.      
  930.00000p    0.         0.      
  940.00000p    0.         0.      
  950.00000p    0.         0.      
  960.00000p    0.         0.      
  970.00000p    0.         0.      
  980.00000p    0.         0.      
  990.00000p    0.         0.      
    1.00000n    0.         0.      
    1.01000n    0.         0.      
    1.02000n    0.         0.      
    1.03000n    0.         0.      
    1.04000n    0.         0.      
    1.05000n    0.         0.      
    1.06000n    0.         0.      
    1.07000n    0.         0.      
    1.08000n    0.         0.      
    1.09000n    0.         0.      
    1.10000n    0.         0.      
    1.11000n    0.         0.      
    1.12000n    0.         0.      
    1.13000n    0.         0.      
    1.14000n    0.         0.      
    1.15000n    0.         0.      
    1.16000n    0.         0.      
    1.17000n    0.         0.      
    1.18000n    0.         0.      
    1.19000n    0.         0.      
    1.20000n    0.         0.      
    1.21000n    0.         0.      
    1.22000n    0.         0.      
    1.23000n    0.         0.      
    1.24000n    0.         0.      
    1.25000n    0.         0.      
    1.26000n    0.         0.      
    1.27000n    0.         0.      
    1.28000n    0.         0.      
    1.29000n    0.         0.      
    1.30000n    0.         0.      
    1.31000n    0.         0.      
    1.32000n    0.         0.      
    1.33000n    0.         0.      
    1.34000n    0.         0.      
    1.35000n    0.         0.      
    1.36000n    0.         0.      
    1.37000n    0.         0.      
    1.38000n    0.         0.      
    1.39000n    0.         0.      
    1.40000n    0.         0.      
    1.41000n    0.         0.      
    1.42000n    0.         0.      
    1.43000n    0.         0.      
    1.44000n    0.         0.      
    1.45000n    0.         0.      
    1.46000n    0.         0.      
    1.47000n    0.         0.      
    1.48000n    0.         0.      
    1.49000n    0.         0.      
    1.50000n    0.         0.      
    1.51000n    0.         0.      
    1.52000n    0.         0.      
    1.53000n    0.         0.      
    1.54000n    0.         0.      
    1.55000n    0.         0.      
    1.56000n    0.         0.      
    1.57000n    0.         0.      
    1.58000n    0.         0.      
    1.59000n    0.         0.      
    1.60000n    0.         0.      
    1.61000n    0.         0.      
    1.62000n    0.         0.      
    1.63000n    0.         0.      
    1.64000n    0.         0.      
    1.65000n    0.         0.      
    1.66000n    0.         0.      
    1.67000n    0.         0.      
    1.68000n    0.         0.      
    1.69000n    0.         0.      
    1.70000n    0.         0.      
    1.71000n    0.         0.      
    1.72000n    0.         0.      
    1.73000n    0.         0.      
    1.74000n    0.         0.      
    1.75000n    0.         0.      
    1.76000n    0.         0.      
    1.77000n    0.         0.      
    1.78000n    0.         0.      
    1.79000n    0.         0.      
    1.80000n    0.         0.      
    1.81000n    0.         0.      
    1.82000n    0.         0.      
    1.83000n    0.         0.      
    1.84000n    0.         0.      
    1.85000n    0.         0.      
    1.86000n    0.         0.      
    1.87000n    0.         0.      
    1.88000n    0.         0.      
    1.89000n    0.         0.      
    1.90000n    0.         0.      
    1.91000n    0.         0.      
    1.92000n    0.         0.      
    1.93000n    0.         0.      
    1.94000n    0.         0.      
    1.95000n    0.         0.      
    1.96000n    0.         0.      
    1.97000n    0.         0.      
    1.98000n    0.         0.      
    1.99000n    0.         0.      
    2.00000n    0.         0.      
    2.01000n    0.         0.      
    2.02000n    0.         0.      
    2.03000n    0.         0.      
    2.04000n    0.         0.      
    2.05000n    0.         0.      
    2.06000n    0.         0.      
    2.07000n    0.         0.      
    2.08000n    0.         0.      
    2.09000n    0.         0.      
    2.10000n    0.         0.      
    2.11000n    0.         0.      
    2.12000n    0.         0.      
    2.13000n    0.         0.      
    2.14000n    0.         0.      
    2.15000n    0.         0.      
    2.16000n    0.         0.      
    2.17000n    0.         0.      
    2.18000n    0.         0.      
    2.19000n    0.         0.      
    2.20000n    0.         0.      
    2.21000n    0.         0.      
    2.22000n    0.         0.      
    2.23000n    0.         0.      
    2.24000n    0.         0.      
    2.25000n    0.         0.      
    2.26000n    0.         0.      
    2.27000n    0.         0.      
    2.28000n    0.         0.      
    2.29000n    0.         0.      
    2.30000n    0.         0.      
    2.31000n    0.         0.      
    2.32000n    0.         0.      
    2.33000n    0.         0.      
    2.34000n    0.         0.      
    2.35000n    0.         0.      
    2.36000n    0.         0.      
    2.37000n    0.         0.      
    2.38000n    0.         0.      
    2.39000n    0.         0.      
    2.40000n    0.         0.      
    2.41000n    0.         0.      
    2.42000n    0.         0.      
    2.43000n    0.         0.      
    2.44000n    0.         0.      
    2.45000n    0.         0.      
    2.46000n    0.         0.      
    2.47000n    0.         0.      
    2.48000n    0.         0.      
    2.49000n    0.         0.      
    2.50000n    0.         0.      
    2.51000n    0.         0.      
    2.52000n    0.         0.      
    2.53000n    0.         0.      
    2.54000n    0.         0.      
    2.55000n    0.         0.      
    2.56000n    0.         0.      
    2.57000n    0.         0.      
    2.58000n    0.         0.      
    2.59000n    0.         0.      
    2.60000n    0.         0.      
    2.61000n    0.         0.      
    2.62000n    0.         0.      
    2.63000n    0.         0.      
    2.64000n    0.         0.      
    2.65000n    0.         0.      
    2.66000n    0.         0.      
    2.67000n    0.         0.      
    2.68000n    0.         0.      
    2.69000n    0.         0.      
    2.70000n    0.         0.      
    2.71000n    0.         0.      
    2.72000n    0.         0.      
    2.73000n    0.         0.      
    2.74000n    0.         0.      
    2.75000n    0.         0.      
    2.76000n    0.         0.      
    2.77000n    0.         0.      
    2.78000n    0.         0.      
    2.79000n    0.         0.      
    2.80000n    0.         0.      
    2.81000n    0.         0.      
    2.82000n    0.         0.      
    2.83000n    0.         0.      
    2.84000n    0.         0.      
    2.85000n    0.         0.      
    2.86000n    0.         0.      
    2.87000n    0.         0.      
    2.88000n    0.         0.      
    2.89000n    0.         0.      
    2.90000n    0.         0.      
    2.91000n    0.         0.      
    2.92000n    0.         0.      
    2.93000n    0.         0.      
    2.94000n    0.         0.      
    2.95000n    0.         0.      
    2.96000n    0.         0.      
    2.97000n    0.         0.      
    2.98000n    0.         0.      
    2.99000n    0.         0.      
    3.00000n    0.         0.      
    3.01000n    0.         0.      
    3.02000n    0.         0.      
    3.03000n    0.         0.      
    3.04000n    0.         0.      
    3.05000n    0.         0.      
    3.06000n    0.         0.      
    3.07000n    0.         0.      
    3.08000n    0.         0.      
    3.09000n    0.         0.      
    3.10000n    0.         0.      
    3.11000n    0.         0.      
    3.12000n    0.         0.      
    3.13000n    0.         0.      
    3.14000n    0.         0.      
    3.15000n    0.         0.      
    3.16000n    0.         0.      
    3.17000n    0.         0.      
    3.18000n    0.         0.      
    3.19000n    0.         0.      
    3.20000n    0.         0.      
    3.21000n    0.         0.      
    3.22000n    0.         0.      
    3.23000n    0.         0.      
    3.24000n    0.         0.      
    3.25000n    0.         0.      
    3.26000n    0.         0.      
    3.27000n    0.         0.      
    3.28000n    0.         0.      
    3.29000n    0.         0.      
    3.30000n    0.         0.      
    3.31000n    0.         0.      
    3.32000n    0.         0.      
    3.33000n    0.         0.      
    3.34000n    0.         0.      
    3.35000n    0.         0.      
    3.36000n    0.         0.      
    3.37000n    0.         0.      
    3.38000n    0.         0.      
    3.39000n    0.         0.      
    3.40000n    0.         0.      
    3.41000n    0.         0.      
    3.42000n    0.         0.      
    3.43000n    0.         0.      
    3.44000n    0.         0.      
    3.45000n    0.         0.      
    3.46000n    0.         0.      
    3.47000n    0.         0.      
    3.48000n    0.         0.      
    3.49000n    0.         0.      
    3.50000n    0.         0.      
    3.51000n    0.         0.      
    3.52000n    0.         0.      
    3.53000n    0.         0.      
    3.54000n    0.         0.      
    3.55000n    0.         0.      
    3.56000n    0.         0.      
    3.57000n    0.         0.      
    3.58000n    0.         0.      
    3.59000n    0.         0.      
    3.60000n    0.         0.      
    3.61000n    0.         0.      
    3.62000n    0.         0.      
    3.63000n    0.         0.      
    3.64000n    0.         0.      
    3.65000n    0.         0.      
    3.66000n    0.         0.      
    3.67000n    0.         0.      
    3.68000n    0.         0.      
    3.69000n    0.         0.      
    3.70000n    0.         0.      
    3.71000n    0.         0.      
    3.72000n    0.         0.      
    3.73000n    0.         0.      
    3.74000n    0.         0.      
    3.75000n    0.         0.      
    3.76000n    0.         0.      
    3.77000n    0.         0.      
    3.78000n    0.         0.      
    3.79000n    0.         0.      
    3.80000n    0.         0.      
    3.81000n    0.         0.      
    3.82000n    0.         0.      
    3.83000n    0.         0.      
    3.84000n    0.         0.      
    3.85000n    0.         0.      
    3.86000n    0.         0.      
    3.87000n    0.         0.      
    3.88000n    0.         0.      
    3.89000n    0.         0.      
    3.90000n    0.         0.      
    3.91000n    0.         0.      
    3.92000n    0.         0.      
    3.93000n    0.         0.      
    3.94000n    0.         0.      
    3.95000n    0.         0.      
    3.96000n    0.         0.      
    3.97000n    0.         0.      
    3.98000n    0.         0.      
    3.99000n    0.         0.      
    4.00000n    0.         0.      
    4.01000n    0.         0.      
    4.02000n    0.         0.      
    4.03000n    0.         0.      
    4.04000n    0.         0.      
    4.05000n    0.         0.      
    4.06000n    0.         0.      
    4.07000n    0.         0.      
    4.08000n    0.         0.      
    4.09000n    0.         0.      
    4.10000n    0.         0.      
    4.11000n    0.         0.      
    4.12000n    0.         0.      
    4.13000n    0.         0.      
    4.14000n    0.         0.      
    4.15000n    0.         0.      
    4.16000n    0.         0.      
    4.17000n    0.         0.      
    4.18000n    0.         0.      
    4.19000n    0.         0.      
    4.20000n    0.         0.      
    4.21000n    0.         0.      
    4.22000n    0.         0.      
    4.23000n    0.         0.      
    4.24000n    0.         0.      
    4.25000n    0.         0.      
    4.26000n    0.         0.      
    4.27000n    0.         0.      
    4.28000n    0.         0.      
    4.29000n    0.         0.      
    4.30000n    0.         0.      
    4.31000n    0.         0.      
    4.32000n    0.         0.      
    4.33000n    0.         0.      
    4.34000n    0.         0.      
    4.35000n    0.         0.      
    4.36000n    0.         0.      
    4.37000n    0.         0.      
    4.38000n    0.         0.      
    4.39000n    0.         0.      
    4.40000n    0.         0.      
    4.41000n    0.         0.      
    4.42000n    0.         0.      
    4.43000n    0.         0.      
    4.44000n    0.         0.      
    4.45000n    0.         0.      
    4.46000n    0.         0.      
    4.47000n    0.         0.      
    4.48000n    0.         0.      
    4.49000n    0.         0.      
    4.50000n    0.         0.      
    4.51000n    0.         0.      
    4.52000n    0.         0.      
    4.53000n    0.         0.      
    4.54000n    0.         0.      
    4.55000n    0.         0.      
    4.56000n    0.         0.      
    4.57000n    0.         0.      
    4.58000n    0.         0.      
    4.59000n    0.         0.      
    4.60000n    0.         0.      
    4.61000n    0.         0.      
    4.62000n    0.         0.      
    4.63000n    0.         0.      
    4.64000n    0.         0.      
    4.65000n    0.         0.      
    4.66000n    0.         0.      
    4.67000n    0.         0.      
    4.68000n    0.         0.      
    4.69000n    0.         0.      
    4.70000n    0.         0.      
    4.71000n    0.         0.      
    4.72000n    0.         0.      
    4.73000n    0.         0.      
    4.74000n    0.         0.      
    4.75000n    0.         0.      
    4.76000n    0.         0.      
    4.77000n    0.         0.      
    4.78000n    0.         0.      
    4.79000n    0.         0.      
    4.80000n    0.         0.      
    4.81000n    0.         0.      
    4.82000n    0.         0.      
    4.83000n    0.         0.      
    4.84000n    0.         0.      
    4.85000n    0.         0.      
    4.86000n    0.         0.      
    4.87000n    0.         0.      
    4.88000n    0.         0.      
    4.89000n    0.         0.      
    4.90000n    0.         0.      
    4.91000n    0.         0.      
    4.92000n    0.         0.      
    4.93000n    0.         0.      
    4.94000n    0.         0.      
    4.95000n    0.         0.      
    4.96000n    0.         0.      
    4.97000n    0.         0.      
    4.98000n    0.         0.      
    4.99000n    0.         0.      
    5.00000n    0.         0.      
    5.01000n    4.0000    13.6732p 
    5.02000n    4.0000     1.0817n 
    5.03000n    4.0000     8.6301n 
    5.04000n    4.0000    51.5804n 
    5.05000n    4.0000    94.5308n 
    5.06000n    4.0000   195.5164n 
    5.07000n    4.0000   488.9193n 
    5.08000n    4.0000   782.3223n 
    5.09000n    4.0000     1.0757u 
    5.10000n    4.0000     1.8083u 
    5.11000n    4.0000     3.3330u 
    5.12000n    4.0000     4.8577u 
    5.13000n    4.0000     6.3824u 
    5.14000n    4.0000     7.9071u 
    5.15000n    4.0000     9.4318u 
    5.16000n    4.0000    12.8143u 
    5.17000n    4.0000    18.9545u 
    5.18000n    4.0000    25.0946u 
    5.19000n    4.0000    31.2347u 
    5.20000n    4.0000    37.3749u 
    5.21000n    4.0000    43.5150u 
    5.22000n    4.0000    49.6552u 
    5.23000n    4.0000    55.7953u 
    5.24000n    4.0000    61.9355u 
    5.25000n    4.0000    80.9953u 
    5.26000n    4.0000   100.4006u 
    5.27000n    4.0000   119.8058u 
    5.28000n    4.0000   139.2111u 
    5.29000n    4.0000   158.6164u 
    5.30000n    4.0000   178.0217u 
    5.31000n    4.0000   197.4269u 
    5.32000n    4.0000   216.8322u 
    5.33000n    4.0000   236.2375u 
    5.34000n    4.0000   255.6427u 
    5.35000n    4.0000   275.0480u 
    5.36000n    4.0000   316.1215u 
    5.37000n    4.0000   364.9128u 
    5.38000n    4.0000   413.7042u 
    5.39000n    4.0000   462.4955u 
    5.40000n    4.0000   511.2869u 
    5.41000n    4.0000   560.0782u 
    5.42000n    4.0000   608.8696u 
    5.43000n    4.0000   657.6609u 
    5.44000n    4.0000   706.4523u 
    5.45000n    4.0000   755.2436u 
    5.46000n    4.0000   804.0349u 
    5.47000n    4.0000   852.8263u 
    5.48000n    4.0000   901.6176u 
    5.49000n    4.0000   950.4090u 
    5.50000n    4.0000     1.0553m 
    5.51000n    4.0000     1.1611m 
    5.52000n    4.0000     1.2669m 
    5.53000n    4.0000     1.3728m 
    5.54000n    4.0000     1.4786m 
    5.55000n    4.0000     1.5844m 
    5.56000n    4.0000     1.6902m 
    5.57000n    4.0000     1.7961m 
    5.58000n    4.0000     1.9019m 
    5.59000n    4.0000     2.0077m 
    5.60000n    4.0000     2.1135m 
    5.61000n    4.0000     2.2194m 
    5.62000n    4.0000     2.3252m 
    5.63000n    4.0000     2.4310m 
    5.64000n    4.0000     2.5368m 
    5.65000n    4.0000     2.6427m 
    5.66000n    4.0000     2.7485m 
    5.67000n    4.0000     2.8543m 
    5.68000n    4.0000     3.0568m 
    5.69000n    4.0000     3.2623m 
    5.70000n    4.0000     3.4677m 
    5.71000n    4.0000     3.6732m 
    5.72000n    4.0000     3.8787m 
    5.73000n    4.0000     4.0842m 
    5.74000n    4.0000     4.2897m 
    5.75000n    4.0000     4.4952m 
    5.76000n    4.0000     4.7006m 
    5.77000n    4.0000     4.9061m 
    5.78000n    4.0000     5.1116m 
    5.79000n    4.0000     5.3171m 
    5.80000n    4.0000     5.5226m 
    5.81000n    4.0000     5.7281m 
    5.82000n    4.0000     5.9335m 
    5.83000n    4.0000     6.1390m 
    5.84000n    4.0000     6.3445m 
    5.85000n    4.0000     6.5500m 
    5.86000n    4.0000     6.7555m 
    5.87000n    4.0000     6.9610m 
    5.88000n    4.0000     7.1664m 
    5.89000n    4.0000     7.3719m 
    5.90000n    4.0000     7.5774m 
    5.91000n    4.0000     7.8843m 
    5.92000n    4.0000     8.2460m 
    5.93000n    4.0000     8.6076m 
    5.94000n    4.0000     8.9693m 
    5.95000n    4.0000     9.3309m 
    5.96000n    4.0000     9.6926m 
    5.97000n    4.0000    10.0543m 
    5.98000n    4.0000    10.4159m 
    5.99000n    4.0000    10.7776m 
    6.00000n    4.0000    11.1392m 
    6.01000n    4.0000    11.5009m 
    6.02000n    4.0000    11.8626m 
    6.03000n    4.0000    12.2242m 
    6.04000n    4.0000    12.5859m 
    6.05000n    4.0000    12.9476m 
    6.06000n    4.0000    13.3092m 
    6.07000n    4.0000    13.6709m 
    6.08000n    4.0000    14.0325m 
    6.09000n    4.0000    14.3942m 
    6.10000n    4.0000    14.7559m 
    6.11000n    4.0000    15.1175m 
    6.12000n    4.0000    15.4792m 
    6.13000n    4.0000    15.8408m 
    6.14000n    4.0000    16.2025m 
    6.15000n    4.0000    16.5642m 
    6.16000n    4.0000    16.9258m 
    6.17000n    4.0000    17.2875m 
    6.18000n    4.0000    17.6491m 
    6.19000n    4.0000    18.0108m 
    6.20000n    4.0000    18.3725m 
    6.21000n    4.0000    18.8010m 
    6.22000n    4.0000    19.3805m 
    6.23000n    4.0000    19.9601m 
    6.24000n    4.0000    20.5396m 
    6.25000n    4.0000    21.1192m 
    6.26000n    4.0000    21.6987m 
    6.27000n    4.0000    22.2783m 
    6.28000n    4.0000    22.8578m 
    6.29000n    4.0000    23.4374m 
    6.30000n    4.0000    24.0169m 
    6.31000n    4.0000    24.5965m 
    6.32000n    4.0000    25.1761m 
    6.33000n    4.0000    25.7556m 
    6.34000n    4.0000    26.3352m 
    6.35000n    4.0000    26.9147m 
    6.36000n    4.0000    27.4943m 
    6.37000n    4.0000    28.0738m 
    6.38000n    4.0000    28.6534m 
    6.39000n    4.0000    29.2329m 
    6.40000n    4.0000    29.8125m 
    6.41000n    4.0000    30.3920m 
    6.42000n    4.0000    30.9716m 
    6.43000n    4.0000    31.5511m 
    6.44000n    4.0000    32.1307m 
    6.45000n    4.0000    32.7102m 
    6.46000n    4.0000    33.2898m 
    6.47000n    4.0000    33.8694m 
    6.48000n    4.0000    34.4489m 
    6.49000n    4.0000    35.0285m 
    6.50000n    4.0000    35.6080m 
    6.51000n    4.0000    36.1876m 
    6.52000n    4.0000    36.7671m 
    6.53000n    4.0000    37.3467m 
    6.54000n    4.0000    37.9262m 
    6.55000n    4.0000    38.5058m 
    6.56000n    4.0000    39.0853m 
    6.57000n    4.0000    39.6649m 
    6.58000n    4.0000    40.2444m 
    6.59000n    4.0000    40.8240m 
    6.60000n    4.0000    41.5440m 
    6.61000n    4.0000    42.3865m 
    6.62000n    4.0000    43.2290m 
    6.63000n    4.0000    44.0716m 
    6.64000n    4.0000    44.9141m 
    6.65000n    4.0000    45.7566m 
    6.66000n    4.0000    46.5991m 
    6.67000n    4.0000    47.4416m 
    6.68000n    4.0000    48.2842m 
    6.69000n    4.0000    49.1267m 
    6.70000n    4.0000    49.9692m 
    6.71000n    4.0000    50.8117m 
    6.72000n    4.0000    51.6542m 
    6.73000n    4.0000    52.4968m 
    6.74000n    4.0000    53.3393m 
    6.75000n    4.0000    54.1818m 
    6.76000n    4.0000    55.0243m 
    6.77000n    4.0000    55.8668m 
    6.78000n    4.0000    56.7094m 
    6.79000n    4.0000    57.5519m 
    6.80000n    4.0000    58.3944m 
    6.81000n    4.0000    59.2369m 
    6.82000n    4.0000    60.0794m 
    6.83000n    4.0000    60.9220m 
    6.84000n    4.0000    61.7645m 
    6.85000n    4.0000    62.6070m 
    6.86000n    4.0000    63.4495m 
    6.87000n    4.0000    64.2920m 
    6.88000n    4.0000    65.1346m 
    6.89000n    4.0000    65.9771m 
    6.90000n    4.0000    66.8196m 
    6.91000n    4.0000    67.6621m 
    6.92000n    4.0000    68.5046m 
    6.93000n    4.0000    69.3472m 
    6.94000n    4.0000    70.1897m 
    6.95000n    4.0000    71.0322m 
    6.96000n    4.0000    71.8747m 
    6.97000n    4.0000    72.7172m 
    6.98000n    4.0000    73.5598m 
    6.99000n    4.0000    74.4023m 
    7.00000n    4.0000    75.2448m 
    7.01000n    4.0000    76.0873m 
    7.02000n    4.0000    76.9298m 
    7.03000n    4.0000    77.7723m 
    7.04000n    4.0000    78.6149m 
    7.05000n    4.0000    79.4574m 
    7.06000n    4.0000    80.2999m 
    7.07000n    4.0000    81.2769m 
    7.08000n    4.0000    82.3824m 
    7.09000n    4.0000    83.4880m 
    7.10000n    4.0000    84.5935m 
    7.11000n    4.0000    85.6991m 
    7.12000n    4.0000    86.8047m 
    7.13000n    4.0000    87.9102m 
    7.14000n    4.0000    89.0158m 
    7.15000n    4.0000    90.1213m 
    7.16000n    4.0000    91.2269m 
    7.17000n    4.0000    92.3324m 
    7.18000n    4.0000    93.4380m 
    7.19000n    4.0000    94.5435m 
    7.20000n    4.0000    95.6491m 
    7.21000n    4.0000    96.7546m 
    7.22000n    4.0000    97.8602m 
    7.23000n    4.0000    98.9657m 
    7.24000n    4.0000   100.0713m 
    7.25000n    4.0000   101.1769m 
    7.26000n    4.0000   102.2824m 
    7.27000n    4.0000   103.3880m 
    7.28000n    4.0000   104.4935m 
    7.29000n    4.0000   105.5991m 
    7.30000n    4.0000   106.7046m 
    7.31000n    4.0000   107.8102m 
    7.32000n    4.0000   108.9157m 
    7.33000n    4.0000   110.0213m 
    7.34000n    4.0000   111.1268m 
    7.35000n    4.0000   112.2324m 
    7.36000n    4.0000   113.3379m 
    7.37000n    4.0000   114.4435m 
    7.38000n    4.0000   115.5491m 
    7.39000n    4.0000   116.6546m 
    7.40000n    4.0000   117.7602m 
    7.41000n    4.0000   118.8657m 
    7.42000n    4.0000   119.9713m 
    7.43000n    4.0000   121.0768m 
    7.44000n    4.0000   122.1824m 
    7.45000n    4.0000   123.2879m 
    7.46000n    4.0000   124.3935m 
    7.47000n    4.0000   125.4990m 
    7.48000n    4.0000   126.6046m 
    7.49000n    4.0000   127.7101m 
    7.50000n    4.0000   128.8157m 
    7.51000n    4.0000   129.9213m 
    7.52000n    4.0000   131.0268m 
    7.53000n    4.0000   132.1324m 
    7.54000n    4.0000   133.2379m 
    7.55000n    4.0000   134.3435m 
    7.56000n    4.0000   135.4490m 
    7.57000n    4.0000   136.6269m 
    7.58000n    4.0000   137.9703m 
    7.59000n    4.0000   139.3137m 
    7.60000n    4.0000   140.6571m 
    7.61000n    4.0000   142.0005m 
    7.62000n    4.0000   143.3439m 
    7.63000n    4.0000   144.6873m 
    7.64000n    4.0000   146.0307m 
    7.65000n    4.0000   147.3741m 
    7.66000n    4.0000   148.7175m 
    7.67000n    4.0000   150.0609m 
    7.68000n    4.0000   151.4043m 
    7.69000n    4.0000   152.7477m 
    7.70000n    4.0000   154.0911m 
    7.71000n    4.0000   155.4346m 
    7.72000n    4.0000   156.7780m 
    7.73000n    4.0000   158.1214m 
    7.74000n    4.0000   159.4648m 
    7.75000n    4.0000   160.8082m 
    7.76000n    4.0000   162.1516m 
    7.77000n    4.0000   163.4950m 
    7.78000n    4.0000   164.8384m 
    7.79000n    4.0000   166.1818m 
    7.80000n    4.0000   167.5252m 
    7.81000n    4.0000   168.8686m 
    7.82000n    4.0000   170.2120m 
    7.83000n    4.0000   171.5554m 
    7.84000n    4.0000   172.8988m 
    7.85000n    4.0000   174.2422m 
    7.86000n    4.0000   175.5856m 
    7.87000n    4.0000   176.9290m 
    7.88000n    4.0000   178.2724m 
    7.89000n    4.0000   179.6158m 
    7.90000n    4.0000   180.9592m 
    7.91000n    4.0000   182.3026m 
    7.92000n    4.0000   183.6460m 
    7.93000n    4.0000   184.9894m 
    7.94000n    4.0000   186.3328m 
    7.95000n    4.0000   187.6762m 
    7.96000n    4.0000   189.0196m 
    7.97000n    4.0000   190.3630m 
    7.98000n    4.0000   191.7064m 
    7.99000n    4.0000   193.0498m 
    8.00000n    4.0000   194.3932m 
    8.01000n    4.0000   195.7366m 
    8.02000n    4.0000   197.0800m 
    8.03000n    4.0000   198.4234m 
    8.04000n    4.0000   199.7668m 
    8.05000n    4.0000   201.1102m 
    8.06000n    4.0000   202.4536m 
    8.07000n    4.0000   203.7970m 
    8.08000n    4.0000   205.1404m 
    8.09000n    4.0000   206.4838m 
    8.10000n    4.0000   207.8272m 
    8.11000n    4.0000   209.1706m 
    8.12000n    4.0000   210.5140m 
    8.13000n    4.0000   211.8574m 
    8.14000n    4.0000   213.2008m 
    8.15000n    4.0000   214.5443m 
    8.16000n    4.0000   215.8877m 
    8.17000n    4.0000   217.2770m 
    8.18000n    4.0000   218.8265m 
    8.19000n    4.0000   220.3759m 
    8.20000n    4.0000   221.9254m 
    8.21000n    4.0000   223.4748m 
    8.22000n    4.0000   225.0243m 
    8.23000n    4.0000   226.5738m 
    8.24000n    4.0000   228.1232m 
    8.25000n    4.0000   229.6727m 
    8.26000n    4.0000   231.2221m 
    8.27000n    4.0000   232.7716m 
    8.28000n    4.0000   234.3211m 
    8.29000n    4.0000   235.8705m 
    8.30000n    4.0000   237.4200m 
    8.31000n    4.0000   238.9695m 
    8.32000n    4.0000   240.5189m 
    8.33000n    4.0000   242.0684m 
    8.34000n    4.0000   243.6178m 
    8.35000n    4.0000   245.1673m 
    8.36000n    4.0000   246.7168m 
    8.37000n    4.0000   248.2662m 
    8.38000n    4.0000   249.8157m 
    8.39000n    4.0000   251.3651m 
    8.40000n    4.0000   252.9146m 
    8.41000n    4.0000   254.4641m 
    8.42000n    4.0000   256.0135m 
    8.43000n    4.0000   257.5630m 
    8.44000n    4.0000   259.1125m 
    8.45000n    4.0000   260.6619m 
    8.46000n    4.0000   262.2114m 
    8.47000n    4.0000   263.7608m 
    8.48000n    4.0000   265.3103m 
    8.49000n    4.0000   266.8598m 
    8.50000n    4.0000   268.4092m 
    8.51000n    4.0000   269.9587m 
    8.52000n    4.0000   271.5081m 
    8.53000n    4.0000   273.0576m 
    8.54000n    4.0000   274.6071m 
    8.55000n    4.0000   276.1565m 
    8.56000n    4.0000   277.7060m 
    8.57000n    4.0000   279.2554m 
    8.58000n    4.0000   280.8049m 
    8.59000n    4.0000   282.3544m 
    8.60000n    4.0000   283.9038m 
    8.61000n    4.0000   285.4533m 
    8.62000n    4.0000   287.0028m 
    8.63000n    4.0000   288.5522m 
    8.64000n    4.0000   290.1017m 
    8.65000n    4.0000   291.6511m 
    8.66000n    4.0000   293.2006m 
    8.67000n    4.0000   294.7501m 
    8.68000n    4.0000   296.2995m 
    8.69000n    4.0000   297.8490m 
    8.70000n    4.0000   299.3984m 
    8.71000n    4.0000   300.9479m 
    8.72000n    4.0000   302.4974m 
    8.73000n    4.0000   304.0468m 
    8.74000n    4.0000   305.5963m 
    8.75000n    4.0000   307.1458m 
    8.76000n    4.0000   308.6952m 
    8.77000n    4.0000   310.2447m 
    8.78000n    4.0000   311.7941m 
    8.79000n    4.0000   313.3436m 
    8.80000n    4.0000   314.8931m 
    8.81000n    4.0000   316.4425m 
    8.82000n    4.0000   317.9920m 
    8.83000n    4.0000   319.5414m 
    8.84000n    4.0000   321.0909m 
    8.85000n    4.0000   322.6404m 
    8.86000n    4.0000   324.1898m 
    8.87000n    4.0000   325.7393m 
    8.88000n    4.0000   327.3143m 
    8.89000n    4.0000   329.0216m 
    8.90000n    4.0000   330.7290m 
    8.91000n    4.0000   332.4363m 
    8.92000n    4.0000   334.1436m 
    8.93000n    4.0000   335.8510m 
    8.94000n    4.0000   337.5583m 
    8.95000n    4.0000   339.2657m 
    8.96000n    4.0000   340.9730m 
    8.97000n    4.0000   342.6803m 
    8.98000n    4.0000   344.3877m 
    8.99000n    4.0000   346.0950m 
    9.00000n    4.0000   347.8023m 
    9.01000n    4.0000   349.5097m 
    9.02000n    4.0000   351.2170m 
    9.03000n    4.0000   352.9244m 
    9.04000n    4.0000   354.6317m 
    9.05000n    4.0000   356.3390m 
    9.06000n    4.0000   358.0464m 
    9.07000n    4.0000   359.7537m 
    9.08000n    4.0000   361.4611m 
    9.09000n    4.0000   363.1684m 
    9.10000n    4.0000   364.8757m 
    9.11000n    4.0000   366.5831m 
    9.12000n    4.0000   368.2904m 
    9.13000n    4.0000   369.9978m 
    9.14000n    4.0000   371.7051m 
    9.15000n    4.0000   373.4124m 
    9.16000n    4.0000   375.1198m 
    9.17000n    4.0000   376.8271m 
    9.18000n    4.0000   378.5345m 
    9.19000n    4.0000   380.2418m 
    9.20000n    4.0000   381.9491m 
    9.21000n    4.0000   383.6565m 
    9.22000n    4.0000   385.3638m 
    9.23000n    4.0000   387.0712m 
    9.24000n    4.0000   388.7785m 
    9.25000n    4.0000   390.4858m 
    9.26000n    4.0000   392.1932m 
    9.27000n    4.0000   393.9005m 
    9.28000n    4.0000   395.6079m 
    9.29000n    4.0000   397.3152m 
    9.30000n    4.0000   399.0225m 
    9.31000n    4.0000   400.7299m 
    9.32000n    4.0000   402.4372m 
    9.33000n    4.0000   404.1445m 
    9.34000n    4.0000   405.8519m 
    9.35000n    4.0000   407.5592m 
    9.36000n    4.0000   409.2666m 
    9.37000n    4.0000   410.9739m 
    9.38000n    4.0000   412.6812m 
    9.39000n    4.0000   414.3886m 
    9.40000n    4.0000   416.0959m 
    9.41000n    4.0000   417.8033m 
    9.42000n    4.0000   419.5106m 
    9.43000n    4.0000   421.2179m 
    9.44000n    4.0000   422.9253m 
    9.45000n    4.0000   424.6326m 
    9.46000n    4.0000   426.3400m 
    9.47000n    4.0000   428.0473m 
    9.48000n    4.0000   429.7546m 
    9.49000n    4.0000   431.4620m 
    9.50000n    4.0000   433.1693m 
    9.51000n    4.0000   434.8767m 
    9.52000n    4.0000   436.5840m 
    9.53000n    4.0000   438.2913m 
    9.54000n    4.0000   439.9987m 
    9.55000n    4.0000   441.7060m 
    9.56000n    4.0000   443.4134m 
    9.57000n    4.0000   445.1207m 
    9.58000n    4.0000   446.8280m 
    9.59000n    4.0000   448.5354m 
    9.60000n    4.0000   450.2427m 
    9.61000n    4.0000   451.9501m 
    9.62000n    4.0000   453.6574m 
    9.63000n    4.0000   455.3647m 
    9.64000n    4.0000   457.0721m 
    9.65000n    4.0000   458.7794m 
    9.66000n    4.0000   460.4867m 
    9.67000n    4.0000   462.1941m 
    9.68000n    4.0000   463.9014m 
    9.69000n    4.0000   465.6088m 
    9.70000n    4.0000   467.3161m 
    9.71000n    4.0000   469.0234m 
    9.72000n    4.0000   470.7308m 
    9.73000n    4.0000   472.4381m 
    9.74000n    4.0000   474.1455m 
    9.75000n    4.0000   475.9249m 
    9.76000n    4.0000   477.7301m 
    9.77000n    4.0000   479.5353m 
    9.78000n    4.0000   481.3405m 
    9.79000n    4.0000   483.1457m 
    9.80000n    4.0000   484.9509m 
    9.81000n    4.0000   486.7561m 
    9.82000n    4.0000   488.5613m 
    9.83000n    4.0000   490.3665m 
    9.84000n    4.0000   492.1717m 
    9.85000n    4.0000   493.9769m 
    9.86000n    4.0000   495.7820m 
    9.87000n    4.0000   497.5872m 
    9.88000n    4.0000   499.3924m 
    9.89000n    4.0000   501.1976m 
    9.90000n    4.0000   503.0028m 
    9.91000n    4.0000   504.8080m 
    9.92000n    4.0000   506.6132m 
    9.93000n    4.0000   508.4184m 
    9.94000n    4.0000   510.2236m 
    9.95000n    4.0000   512.0288m 
    9.96000n    4.0000   513.8340m 
    9.97000n    4.0000   515.6392m 
    9.98000n    4.0000   517.4444m 
    9.99000n    4.0000   519.2496m 
   10.00000n    4.0000   521.0548m 
   10.01000n    4.0000   522.8600m 
   10.02000n    4.0000   524.6652m 
   10.03000n    4.0000   526.4704m 
   10.04000n    4.0000   528.2756m 
   10.05000n    4.0000   530.0808m 
   10.06000n    4.0000   531.8860m 
   10.07000n    4.0000   533.6912m 
   10.08000n    4.0000   535.4964m 
   10.09000n    4.0000   537.3016m 
   10.10000n    4.0000   539.1068m 
   10.11000n    4.0000   540.9120m 
   10.12000n    4.0000   542.7172m 
   10.13000n    4.0000   544.5224m 
   10.14000n    4.0000   546.3276m 
   10.15000n    4.0000   548.1328m 
   10.16000n    4.0000   549.9380m 
   10.17000n    4.0000   551.7432m 
   10.18000n    4.0000   553.5484m 
   10.19000n    4.0000   555.3536m 
   10.20000n    4.0000   557.1588m 
   10.21000n    4.0000   558.9640m 
   10.22000n    4.0000   560.7691m 
   10.23000n    4.0000   562.5743m 
   10.24000n    4.0000   564.3795m 
   10.25000n    4.0000   566.1847m 
   10.26000n    4.0000   567.9899m 
   10.27000n    4.0000   569.7951m 
   10.28000n    4.0000   571.6003m 
   10.29000n    4.0000   573.4055m 
   10.30000n    4.0000   575.2107m 
   10.31000n    4.0000   577.0159m 
   10.32000n    4.0000   578.8211m 
   10.33000n    4.0000   580.6263m 
   10.34000n    4.0000   582.4315m 
   10.35000n    4.0000   584.2367m 
   10.36000n    4.0000   586.0419m 
   10.37000n    4.0000   587.8471m 
   10.38000n    4.0000   589.6523m 
   10.39000n    4.0000   591.4575m 
   10.40000n    4.0000   593.2627m 
   10.41000n    4.0000   595.0679m 
   10.42000n    4.0000   596.8731m 
   10.43000n    4.0000   598.6783m 
   10.44000n    4.0000   600.4835m 
   10.45000n    4.0000   602.2887m 
   10.46000n    4.0000   604.0939m 
   10.47000n    4.0000   605.8991m 
   10.48000n    4.0000   607.7043m 
   10.49000n    4.0000   609.5095m 
   10.50000n    4.0000   611.3147m 
   10.51000n    4.0000   613.1199m 
   10.52000n    4.0000   614.9251m 
   10.53000n    4.0000   616.7303m 
   10.54000n    4.0000   618.5355m 
   10.55000n    4.0000   620.3407m 
   10.56000n    4.0000   622.1459m 
   10.57000n    4.0000   623.9511m 
   10.58000n    4.0000   625.7562m 
   10.59000n    4.0000   627.5614m 
   10.60000n    4.0000   629.3666m 
   10.61000n    4.0000   631.1718m 
   10.62000n    4.0000   632.9770m 
   10.63000n    4.0000   634.7822m 
   10.64000n    4.0000   636.5874m 
   10.65000n    4.0000   638.3926m 
   10.66000n    4.0000   640.1978m 
   10.67000n    4.0000   642.0030m 
   10.68000n    4.0000   643.8082m 
   10.69000n    4.0000   645.6134m 
   10.70000n    4.0000   647.4186m 
   10.71000n    4.0000   649.2238m 
   10.72000n    4.0000   651.0290m 
   10.73000n    4.0000   652.8342m 
   10.74000n    4.0000   654.6394m 
   10.75000n    4.0000   656.4446m 
   10.76000n    4.0000   658.2498m 
   10.77000n    4.0000   660.0550m 
   10.78000n    4.0000   661.8602m 
   10.79000n    4.0000   663.6654m 
   10.80000n    4.0000   665.4764m 
   10.81000n    4.0000   667.3112m 
   10.82000n    4.0000   669.1460m 
   10.83000n    4.0000   670.9807m 
   10.84000n    4.0000   672.8155m 
   10.85000n    4.0000   674.6503m 
   10.86000n    4.0000   676.4851m 
   10.87000n    4.0000   678.3199m 
   10.88000n    4.0000   680.1547m 
   10.89000n    4.0000   681.9895m 
   10.90000n    4.0000   683.8242m 
   10.91000n    4.0000   685.6590m 
   10.92000n    4.0000   687.4938m 
   10.93000n    4.0000   689.3286m 
   10.94000n    4.0000   691.1634m 
   10.95000n    4.0000   692.9982m 
   10.96000n    4.0000   694.8329m 
   10.97000n    4.0000   696.6677m 
   10.98000n    4.0000   698.5025m 
   10.99000n    4.0000   700.3373m 
   11.00000n    4.0000   702.1721m 
   11.01000n    4.0000   704.0069m 
   11.02000n    4.0000   705.8417m 
   11.03000n    4.0000   707.6764m 
   11.04000n    4.0000   709.5112m 
   11.05000n    4.0000   711.3460m 
   11.06000n    4.0000   713.1808m 
   11.07000n    4.0000   715.0156m 
   11.08000n    4.0000   716.8504m 
   11.09000n    4.0000   718.6851m 
   11.10000n    4.0000   720.5199m 
   11.11000n    4.0000   722.3547m 
   11.12000n    4.0000   724.1895m 
   11.13000n    4.0000   726.0243m 
   11.14000n    4.0000   727.8591m 
   11.15000n    4.0000   729.6939m 
   11.16000n    4.0000   731.5286m 
   11.17000n    4.0000   733.3634m 
   11.18000n    4.0000   735.1982m 
   11.19000n    4.0000   737.0330m 
   11.20000n    4.0000   738.8678m 
   11.21000n    4.0000   740.7026m 
   11.22000n    4.0000   742.5374m 
   11.23000n    4.0000   744.3721m 
   11.24000n    4.0000   746.2069m 
   11.25000n    4.0000   748.0417m 
   11.26000n    4.0000   749.8765m 
   11.27000n    4.0000   751.7113m 
   11.28000n    4.0000   753.5461m 
   11.29000n    4.0000   755.3808m 
   11.30000n    4.0000   757.2156m 
   11.31000n    4.0000   759.0504m 
   11.32000n    4.0000   760.8852m 
   11.33000n    4.0000   762.7200m 
   11.34000n    4.0000   764.5548m 
   11.35000n    4.0000   766.3896m 
   11.36000n    4.0000   768.2243m 
   11.37000n    4.0000   770.0591m 
   11.38000n    4.0000   771.8939m 
   11.39000n    4.0000   773.7287m 
   11.40000n    4.0000   775.5635m 
   11.41000n    4.0000   777.3983m 
   11.42000n    4.0000   779.2331m 
   11.43000n    4.0000   781.0678m 
   11.44000n    4.0000   782.9026m 
   11.45000n    4.0000   784.7374m 
   11.46000n    4.0000   786.5722m 
   11.47000n    4.0000   788.4070m 
   11.48000n    4.0000   790.2418m 
   11.49000n    4.0000   792.0765m 
   11.50000n    4.0000   793.9113m 
   11.51000n    4.0000   795.7461m 
   11.52000n    4.0000   797.5809m 
   11.53000n    4.0000   799.4157m 
   11.54000n    4.0000   801.2505m 
   11.55000n    4.0000   803.0853m 
   11.56000n    4.0000   804.9200m 
   11.57000n    4.0000   806.7548m 
   11.58000n    4.0000   808.5896m 
   11.59000n    4.0000   810.4244m 
   11.60000n    4.0000   812.2592m 
   11.61000n    4.0000   814.0940m 
   11.62000n    4.0000   815.9287m 
   11.63000n    4.0000   817.7635m 
   11.64000n    4.0000   819.5983m 
   11.65000n    4.0000   821.4331m 
   11.66000n    4.0000   823.2679m 
   11.67000n    4.0000   825.1027m 
   11.68000n    4.0000   826.9375m 
   11.69000n    4.0000   828.7722m 
   11.70000n    4.0000   830.6070m 
   11.71000n    4.0000   832.4418m 
   11.72000n    4.0000   834.2766m 
   11.73000n    4.0000   836.1114m 
   11.74000n    4.0000   837.9462m 
   11.75000n    4.0000   839.7810m 
   11.76000n    4.0000   841.6157m 
   11.77000n    4.0000   843.4505m 
   11.78000n    4.0000   845.2853m 
   11.79000n    4.0000   847.1201m 
   11.80000n    4.0000   848.9549m 
   11.81000n    4.0000   850.7897m 
   11.82000n    4.0000   852.6244m 
   11.83000n    4.0000   854.4592m 
   11.84000n    4.0000   856.2940m 
   11.85000n    4.0000   858.1288m 
   11.86000n    4.0000   859.9636m 
   11.87000n    4.0000   861.7984m 
   11.88000n    4.0000   863.6332m 
   11.89000n    4.0000   865.4679m 
   11.90000n    4.0000   867.3027m 
   11.91000n    4.0000   869.1375m 
   11.92000n    4.0000   870.9723m 
   11.93000n    4.0000   872.8071m 
   11.94000n    4.0000   874.6419m 
   11.95000n    4.0000   876.4746m 
   11.96000n    4.0000   878.2769m 
   11.97000n    4.0000   880.0792m 
   11.98000n    4.0000   881.8814m 
   11.99000n    4.0000   883.6837m 
   12.00000n    4.0000   885.4859m 
   12.01000n    4.0000   887.2882m 
   12.02000n    4.0000   889.0905m 
   12.03000n    4.0000   890.8927m 
   12.04000n    4.0000   892.6950m 
   12.05000n    4.0000   894.4972m 
   12.06000n    4.0000   896.2995m 
   12.07000n    4.0000   898.1018m 
   12.08000n    4.0000   899.9040m 
   12.09000n    4.0000   901.7063m 
   12.10000n    4.0000   903.5085m 
   12.11000n    4.0000   905.3108m 
   12.12000n    4.0000   907.1131m 
   12.13000n    4.0000   908.9153m 
   12.14000n    4.0000   910.7176m 
   12.15000n    4.0000   912.5199m 
   12.16000n    4.0000   914.3221m 
   12.17000n    4.0000   916.1244m 
   12.18000n    4.0000   917.9266m 
   12.19000n    4.0000   919.7289m 
   12.20000n    4.0000   921.5312m 
   12.21000n    4.0000   923.3334m 
   12.22000n    4.0000   925.1357m 
   12.23000n    4.0000   926.9379m 
   12.24000n    4.0000   928.7402m 
   12.25000n    4.0000   930.5425m 
   12.26000n    4.0000   932.3447m 
   12.27000n    4.0000   934.1470m 
   12.28000n    4.0000   935.9492m 
   12.29000n    4.0000   937.7515m 
   12.30000n    4.0000   939.5538m 
   12.31000n    4.0000   941.3560m 
   12.32000n    4.0000   943.1583m 
   12.33000n    4.0000   944.9605m 
   12.34000n    4.0000   946.7628m 
   12.35000n    4.0000   948.5651m 
   12.36000n    4.0000   950.3673m 
   12.37000n    4.0000   952.1696m 
   12.38000n    4.0000   953.9719m 
   12.39000n    4.0000   955.7741m 
   12.40000n    4.0000   957.5764m 
   12.41000n    4.0000   959.3786m 
   12.42000n    4.0000   961.1809m 
   12.43000n    4.0000   962.9832m 
   12.44000n    4.0000   964.7854m 
   12.45000n    4.0000   966.5877m 
   12.46000n    4.0000   968.3899m 
   12.47000n    4.0000   970.1922m 
   12.48000n    4.0000   971.9945m 
   12.49000n    4.0000   973.7967m 
   12.50000n    4.0000   975.5990m 
   12.51000n    4.0000   977.4012m 
   12.52000n    4.0000   979.2035m 
   12.53000n    4.0000   981.0058m 
   12.54000n    4.0000   982.8080m 
   12.55000n    4.0000   984.6103m 
   12.56000n    4.0000   986.4126m 
   12.57000n    4.0000   988.2148m 
   12.58000n    4.0000   990.0171m 
   12.59000n    4.0000   991.8193m 
   12.60000n    4.0000   993.6216m 
   12.61000n    4.0000   995.4239m 
   12.62000n    4.0000   997.2261m 
   12.63000n    4.0000   999.0284m 
   12.64000n    4.0000     1.0008  
   12.65000n    4.0000     1.0026  
   12.66000n    4.0000     1.0044  
   12.67000n    4.0000     1.0062  
   12.68000n    4.0000     1.0080  
   12.69000n    4.0000     1.0098  
   12.70000n    4.0000     1.0116  
   12.71000n    4.0000     1.0134  
   12.72000n    4.0000     1.0152  
   12.73000n    4.0000     1.0171  
   12.74000n    4.0000     1.0189  
   12.75000n    4.0000     1.0207  
   12.76000n    4.0000     1.0225  
   12.77000n    4.0000     1.0243  
   12.78000n    4.0000     1.0261  
   12.79000n    4.0000     1.0279  
   12.80000n    4.0000     1.0297  
   12.81000n    4.0000     1.0315  
   12.82000n    4.0000     1.0333  
   12.83000n    4.0000     1.0351  
   12.84000n    4.0000     1.0369  
   12.85000n    4.0000     1.0387  
   12.86000n    4.0000     1.0405  
   12.87000n    4.0000     1.0423  
   12.88000n    4.0000     1.0441  
   12.89000n    4.0000     1.0459  
   12.90000n    4.0000     1.0477  
   12.91000n    4.0000     1.0495  
   12.92000n    4.0000     1.0513  
   12.93000n    4.0000     1.0531  
   12.94000n    4.0000     1.0549  
   12.95000n    4.0000     1.0567  
   12.96000n    4.0000     1.0585  
   12.97000n    4.0000     1.0603  
   12.98000n    4.0000     1.0621  
   12.99000n    4.0000     1.0639  
   13.00000n    4.0000     1.0657  
   13.01000n    4.0000     1.0675  
   13.02000n    4.0000     1.0693  
   13.03000n    4.0000     1.0711  
   13.04000n    4.0000     1.0729  
   13.05000n    4.0000     1.0747  
   13.06000n    4.0000     1.0765  
   13.07000n    4.0000     1.0783  
   13.08000n    4.0000     1.0801  
   13.09000n    4.0000     1.0819  
   13.10000n    4.0000     1.0837  
   13.11000n    4.0000     1.0855  
   13.12000n    4.0000     1.0873  
   13.13000n    4.0000     1.0891  
   13.14000n    4.0000     1.0909  
   13.15000n    4.0000     1.0927  
   13.16000n    4.0000     1.0945  
   13.17000n    4.0000     1.0964  
   13.18000n    4.0000     1.0982  
   13.19000n    4.0000     1.1000  
   13.20000n    4.0000     1.1018  
   13.21000n    4.0000     1.1036  
   13.22000n    4.0000     1.1054  
   13.23000n    4.0000     1.1072  
   13.24000n    4.0000     1.1089  
   13.25000n    4.0000     1.1106  
   13.26000n    4.0000     1.1123  
   13.27000n    4.0000     1.1140  
   13.28000n    4.0000     1.1158  
   13.29000n    4.0000     1.1175  
   13.30000n    4.0000     1.1192  
   13.31000n    4.0000     1.1209  
   13.32000n    4.0000     1.1226  
   13.33000n    4.0000     1.1244  
   13.34000n    4.0000     1.1261  
   13.35000n    4.0000     1.1278  
   13.36000n    4.0000     1.1295  
   13.37000n    4.0000     1.1313  
   13.38000n    4.0000     1.1330  
   13.39000n    4.0000     1.1347  
   13.40000n    4.0000     1.1364  
   13.41000n    4.0000     1.1381  
   13.42000n    4.0000     1.1399  
   13.43000n    4.0000     1.1416  
   13.44000n    4.0000     1.1433  
   13.45000n    4.0000     1.1450  
   13.46000n    4.0000     1.1468  
   13.47000n    4.0000     1.1485  
   13.48000n    4.0000     1.1502  
   13.49000n    4.0000     1.1519  
   13.50000n    4.0000     1.1536  
   13.51000n    4.0000     1.1554  
   13.52000n    4.0000     1.1571  
   13.53000n    4.0000     1.1588  
   13.54000n    4.0000     1.1605  
   13.55000n    4.0000     1.1622  
   13.56000n    4.0000     1.1640  
   13.57000n    4.0000     1.1657  
   13.58000n    4.0000     1.1674  
   13.59000n    4.0000     1.1691  
   13.60000n    4.0000     1.1709  
   13.61000n    4.0000     1.1726  
   13.62000n    4.0000     1.1743  
   13.63000n    4.0000     1.1760  
   13.64000n    4.0000     1.1777  
   13.65000n    4.0000     1.1795  
   13.66000n    4.0000     1.1812  
   13.67000n    4.0000     1.1829  
   13.68000n    4.0000     1.1846  
   13.69000n    4.0000     1.1863  
   13.70000n    4.0000     1.1881  
   13.71000n    4.0000     1.1898  
   13.72000n    4.0000     1.1915  
   13.73000n    4.0000     1.1932  
   13.74000n    4.0000     1.1950  
   13.75000n    4.0000     1.1967  
   13.76000n    4.0000     1.1984  
   13.77000n    4.0000     1.2001  
   13.78000n    4.0000     1.2018  
   13.79000n    4.0000     1.2036  
   13.80000n    4.0000     1.2053  
   13.81000n    4.0000     1.2070  
   13.82000n    4.0000     1.2087  
   13.83000n    4.0000     1.2105  
   13.84000n    4.0000     1.2122  
   13.85000n    4.0000     1.2139  
   13.86000n    4.0000     1.2156  
   13.87000n    4.0000     1.2173  
   13.88000n    4.0000     1.2191  
   13.89000n    4.0000     1.2208  
   13.90000n    4.0000     1.2225  
   13.91000n    4.0000     1.2242  
   13.92000n    4.0000     1.2259  
   13.93000n    4.0000     1.2277  
   13.94000n    4.0000     1.2294  
   13.95000n    4.0000     1.2311  
   13.96000n    4.0000     1.2328  
   13.97000n    4.0000     1.2346  
   13.98000n    4.0000     1.2363  
   13.99000n    4.0000     1.2380  
   14.00000n    4.0000     1.2397  
   14.01000n    4.0000     1.2414  
   14.02000n    4.0000     1.2432  
   14.03000n    4.0000     1.2449  
   14.04000n    4.0000     1.2466  
   14.05000n    4.0000     1.2483  
   14.06000n    4.0000     1.2500  
   14.07000n    4.0000     1.2518  
   14.08000n    4.0000     1.2535  
   14.09000n    4.0000     1.2552  
   14.10000n    4.0000     1.2569  
   14.11000n    4.0000     1.2587  
   14.12000n    4.0000     1.2604  
   14.13000n    4.0000     1.2621  
   14.14000n    4.0000     1.2638  
   14.15000n    4.0000     1.2655  
   14.16000n    4.0000     1.2673  
   14.17000n    4.0000     1.2690  
   14.18000n    4.0000     1.2707  
   14.19000n    4.0000     1.2724  
   14.20000n    4.0000     1.2742  
   14.21000n    4.0000     1.2759  
   14.22000n    4.0000     1.2776  
   14.23000n    4.0000     1.2793  
   14.24000n    4.0000     1.2810  
   14.25000n    4.0000     1.2828  
   14.26000n    4.0000     1.2845  
   14.27000n    4.0000     1.2862  
   14.28000n    4.0000     1.2879  
   14.29000n    4.0000     1.2896  
   14.30000n    4.0000     1.2914  
   14.31000n    4.0000     1.2931  
   14.32000n    4.0000     1.2948  
   14.33000n    4.0000     1.2965  
   14.34000n    4.0000     1.2983  
   14.35000n    4.0000     1.3000  
   14.36000n    4.0000     1.3017  
   14.37000n    4.0000     1.3034  
   14.38000n    4.0000     1.3051  
   14.39000n    4.0000     1.3069  
   14.40000n    4.0000     1.3086  
   14.41000n    4.0000     1.3103  
   14.42000n    4.0000     1.3120  
   14.43000n    4.0000     1.3137  
   14.44000n    4.0000     1.3155  
   14.45000n    4.0000     1.3172  
   14.46000n    4.0000     1.3189  
   14.47000n    4.0000     1.3206  
   14.48000n    4.0000     1.3224  
   14.49000n    4.0000     1.3241  
   14.50000n    4.0000     1.3258  
   14.51000n    4.0000     1.3275  
   14.52000n    4.0000     1.3292  
   14.53000n    4.0000     1.3310  
   14.54000n    4.0000     1.3327  
   14.55000n    4.0000     1.3344  
   14.56000n    4.0000     1.3361  
   14.57000n    4.0000     1.3379  
   14.58000n    4.0000     1.3396  
   14.59000n    4.0000     1.3413  
   14.60000n    4.0000     1.3430  
   14.61000n    4.0000     1.3447  
   14.62000n    4.0000     1.3465  
   14.63000n    4.0000     1.3482  
   14.64000n    4.0000     1.3499  
   14.65000n    4.0000     1.3516  
   14.66000n    4.0000     1.3533  
   14.67000n    4.0000     1.3550  
   14.68000n    4.0000     1.3566  
   14.69000n    4.0000     1.3582  
   14.70000n    4.0000     1.3598  
   14.71000n    4.0000     1.3614  
   14.72000n    4.0000     1.3630  
   14.73000n    4.0000     1.3646  
   14.74000n    4.0000     1.3662  
   14.75000n    4.0000     1.3678  
   14.76000n    4.0000     1.3694  
   14.77000n    4.0000     1.3710  
   14.78000n    4.0000     1.3726  
   14.79000n    4.0000     1.3742  
   14.80000n    4.0000     1.3758  
   14.81000n    4.0000     1.3774  
   14.82000n    4.0000     1.3790  
   14.83000n    4.0000     1.3806  
   14.84000n    4.0000     1.3822  
   14.85000n    4.0000     1.3838  
   14.86000n    4.0000     1.3854  
   14.87000n    4.0000     1.3870  
   14.88000n    4.0000     1.3886  
   14.89000n    4.0000     1.3902  
   14.90000n    4.0000     1.3918  
   14.91000n    4.0000     1.3935  
   14.92000n    4.0000     1.3951  
   14.93000n    4.0000     1.3967  
   14.94000n    4.0000     1.3983  
   14.95000n    4.0000     1.3999  
   14.96000n    4.0000     1.4015  
   14.97000n    4.0000     1.4031  
   14.98000n    4.0000     1.4047  
   14.99000n    4.0000     1.4063  
   15.00000n    4.0000     1.4079  
   15.01000n    4.0000     1.4095  
   15.02000n    4.0000     1.4111  
   15.03000n    4.0000     1.4127  
   15.04000n    4.0000     1.4143  
   15.05000n    4.0000     1.4159  
   15.06000n    4.0000     1.4175  
   15.07000n    4.0000     1.4191  
   15.08000n    4.0000     1.4207  
   15.09000n    4.0000     1.4223  
   15.10000n    4.0000     1.4239  
   15.11000n    4.0000     1.4255  
   15.12000n    4.0000     1.4271  
   15.13000n    4.0000     1.4287  
   15.14000n    4.0000     1.4303  
   15.15000n    4.0000     1.4319  
   15.16000n    4.0000     1.4335  
   15.17000n    4.0000     1.4351  
   15.18000n    4.0000     1.4367  
   15.19000n    4.0000     1.4383  
   15.20000n    4.0000     1.4399  
   15.21000n    4.0000     1.4415  
   15.22000n    4.0000     1.4431  
   15.23000n    4.0000     1.4447  
   15.24000n    4.0000     1.4463  
   15.25000n    4.0000     1.4479  
   15.26000n    4.0000     1.4495  
   15.27000n    4.0000     1.4511  
   15.28000n    4.0000     1.4527  
   15.29000n    4.0000     1.4543  
   15.30000n    4.0000     1.4559  
   15.31000n    4.0000     1.4575  
   15.32000n    4.0000     1.4592  
   15.33000n    4.0000     1.4608  
   15.34000n    4.0000     1.4624  
   15.35000n    4.0000     1.4640  
   15.36000n    4.0000     1.4656  
   15.37000n    4.0000     1.4672  
   15.38000n    4.0000     1.4688  
   15.39000n    4.0000     1.4704  
   15.40000n    4.0000     1.4720  
   15.41000n    4.0000     1.4736  
   15.42000n    4.0000     1.4752  
   15.43000n    4.0000     1.4768  
   15.44000n    4.0000     1.4784  
   15.45000n    4.0000     1.4800  
   15.46000n    4.0000     1.4816  
   15.47000n    4.0000     1.4832  
   15.48000n    4.0000     1.4848  
   15.49000n    4.0000     1.4864  
   15.50000n    4.0000     1.4880  
   15.51000n    4.0000     1.4896  
   15.52000n    4.0000     1.4912  
   15.53000n    4.0000     1.4928  
   15.54000n    4.0000     1.4944  
   15.55000n    4.0000     1.4960  
   15.56000n    4.0000     1.4976  
   15.57000n    4.0000     1.4992  
   15.58000n    4.0000     1.5008  
   15.59000n    4.0000     1.5024  
   15.60000n    4.0000     1.5040  
   15.61000n    4.0000     1.5056  
   15.62000n    4.0000     1.5072  
   15.63000n    4.0000     1.5088  
   15.64000n    4.0000     1.5104  
   15.65000n    4.0000     1.5120  
   15.66000n    4.0000     1.5136  
   15.67000n    4.0000     1.5152  
   15.68000n    4.0000     1.5168  
   15.69000n    4.0000     1.5184  
   15.70000n    4.0000     1.5200  
   15.71000n    4.0000     1.5216  
   15.72000n    4.0000     1.5232  
   15.73000n    4.0000     1.5248  
   15.74000n    4.0000     1.5265  
   15.75000n    4.0000     1.5281  
   15.76000n    4.0000     1.5297  
   15.77000n    4.0000     1.5313  
   15.78000n    4.0000     1.5329  
   15.79000n    4.0000     1.5345  
   15.80000n    4.0000     1.5361  
   15.81000n    4.0000     1.5377  
   15.82000n    4.0000     1.5393  
   15.83000n    4.0000     1.5409  
   15.84000n    4.0000     1.5425  
   15.85000n    4.0000     1.5441  
   15.86000n    4.0000     1.5457  
   15.87000n    4.0000     1.5473  
   15.88000n    4.0000     1.5489  
   15.89000n    4.0000     1.5505  
   15.90000n    4.0000     1.5521  
   15.91000n    4.0000     1.5537  
   15.92000n    4.0000     1.5553  
   15.93000n    4.0000     1.5569  
   15.94000n    4.0000     1.5585  
   15.95000n    4.0000     1.5601  
   15.96000n    4.0000     1.5617  
   15.97000n    4.0000     1.5633  
   15.98000n    4.0000     1.5649  
   15.99000n    4.0000     1.5665  
   16.00000n    4.0000     1.5681  
   16.01000n    4.0000     1.5697  
   16.02000n    4.0000     1.5713  
   16.03000n    4.0000     1.5729  
   16.04000n    4.0000     1.5745  
   16.05000n    4.0000     1.5761  
   16.06000n    4.0000     1.5777  
   16.07000n    4.0000     1.5793  
   16.08000n    4.0000     1.5809  
   16.09000n    4.0000     1.5825  
   16.10000n    4.0000     1.5841  
   16.11000n    4.0000     1.5857  
   16.12000n    4.0000     1.5873  
   16.13000n    4.0000     1.5889  
   16.14000n    4.0000     1.5905  
   16.15000n    4.0000     1.5922  
   16.16000n    4.0000     1.5938  
   16.17000n    4.0000     1.5954  
   16.18000n    4.0000     1.5970  
   16.19000n    4.0000     1.5986  
   16.20000n    4.0000     1.6002  
   16.21000n    4.0000     1.6018  
   16.22000n    4.0000     1.6034  
   16.23000n    4.0000     1.6050  
   16.24000n    4.0000     1.6066  
   16.25000n    4.0000     1.6082  
   16.26000n    4.0000     1.6098  
   16.27000n    4.0000     1.6114  
   16.28000n    4.0000     1.6130  
   16.29000n    4.0000     1.6146  
   16.30000n    4.0000     1.6162  
   16.31000n    4.0000     1.6178  
   16.32000n    4.0000     1.6194  
   16.33000n    4.0000     1.6209  
   16.34000n    4.0000     1.6224  
   16.35000n    4.0000     1.6238  
   16.36000n    4.0000     1.6253  
   16.37000n    4.0000     1.6267  
   16.38000n    4.0000     1.6282  
   16.39000n    4.0000     1.6296  
   16.40000n    4.0000     1.6311  
   16.41000n    4.0000     1.6325  
   16.42000n    4.0000     1.6340  
   16.43000n    4.0000     1.6355  
   16.44000n    4.0000     1.6369  
   16.45000n    4.0000     1.6384  
   16.46000n    4.0000     1.6398  
   16.47000n    4.0000     1.6413  
   16.48000n    4.0000     1.6427  
   16.49000n    4.0000     1.6442  
   16.50000n    4.0000     1.6456  
   16.51000n    4.0000     1.6471  
   16.52000n    4.0000     1.6485  
   16.53000n    4.0000     1.6500  
   16.54000n    4.0000     1.6514  
   16.55000n    4.0000     1.6529  
   16.56000n    4.0000     1.6543  
   16.57000n    4.0000     1.6558  
   16.58000n    4.0000     1.6572  
   16.59000n    4.0000     1.6587  
   16.60000n    4.0000     1.6601  
   16.61000n    4.0000     1.6616  
   16.62000n    4.0000     1.6630  
   16.63000n    4.0000     1.6645  
   16.64000n    4.0000     1.6659  
   16.65000n    4.0000     1.6674  
   16.66000n    4.0000     1.6688  
   16.67000n    4.0000     1.6703  
   16.68000n    4.0000     1.6717  
   16.69000n    4.0000     1.6732  
   16.70000n    4.0000     1.6746  
   16.71000n    4.0000     1.6761  
   16.72000n    4.0000     1.6775  
   16.73000n    4.0000     1.6790  
   16.74000n    4.0000     1.6804  
   16.75000n    4.0000     1.6819  
   16.76000n    4.0000     1.6834  
   16.77000n    4.0000     1.6848  
   16.78000n    4.0000     1.6863  
   16.79000n    4.0000     1.6877  
   16.80000n    4.0000     1.6892  
   16.81000n    4.0000     1.6906  
   16.82000n    4.0000     1.6921  
   16.83000n    4.0000     1.6935  
   16.84000n    4.0000     1.6950  
   16.85000n    4.0000     1.6964  
   16.86000n    4.0000     1.6979  
   16.87000n    4.0000     1.6993  
   16.88000n    4.0000     1.7008  
   16.89000n    4.0000     1.7022  
   16.90000n    4.0000     1.7037  
   16.91000n    4.0000     1.7051  
   16.92000n    4.0000     1.7066  
   16.93000n    4.0000     1.7080  
   16.94000n    4.0000     1.7095  
   16.95000n    4.0000     1.7109  
   16.96000n    4.0000     1.7124  
   16.97000n    4.0000     1.7138  
   16.98000n    4.0000     1.7153  
   16.99000n    4.0000     1.7167  
   17.00000n    4.0000     1.7182  
   17.01000n    4.0000     1.7196  
   17.02000n    4.0000     1.7211  
   17.03000n    4.0000     1.7225  
   17.04000n    4.0000     1.7240  
   17.05000n    4.0000     1.7254  
   17.06000n    4.0000     1.7269  
   17.07000n    4.0000     1.7283  
   17.08000n    4.0000     1.7298  
   17.09000n    4.0000     1.7313  
   17.10000n    4.0000     1.7327  
   17.11000n    4.0000     1.7342  
   17.12000n    4.0000     1.7356  
   17.13000n    4.0000     1.7371  
   17.14000n    4.0000     1.7385  
   17.15000n    4.0000     1.7400  
   17.16000n    4.0000     1.7414  
   17.17000n    4.0000     1.7429  
   17.18000n    4.0000     1.7443  
   17.19000n    4.0000     1.7458  
   17.20000n    4.0000     1.7472  
   17.21000n    4.0000     1.7487  
   17.22000n    4.0000     1.7501  
   17.23000n    4.0000     1.7516  
   17.24000n    4.0000     1.7530  
   17.25000n    4.0000     1.7545  
   17.26000n    4.0000     1.7559  
   17.27000n    4.0000     1.7574  
   17.28000n    4.0000     1.7588  
   17.29000n    4.0000     1.7603  
   17.30000n    4.0000     1.7617  
   17.31000n    4.0000     1.7632  
   17.32000n    4.0000     1.7646  
   17.33000n    4.0000     1.7661  
   17.34000n    4.0000     1.7675  
   17.35000n    4.0000     1.7690  
   17.36000n    4.0000     1.7704  
   17.37000n    4.0000     1.7719  
   17.38000n    4.0000     1.7733  
   17.39000n    4.0000     1.7748  
   17.40000n    4.0000     1.7762  
   17.41000n    4.0000     1.7777  
   17.42000n    4.0000     1.7792  
   17.43000n    4.0000     1.7806  
   17.44000n    4.0000     1.7821  
   17.45000n    4.0000     1.7835  
   17.46000n    4.0000     1.7850  
   17.47000n    4.0000     1.7864  
   17.48000n    4.0000     1.7879  
   17.49000n    4.0000     1.7893  
   17.50000n    4.0000     1.7908  
   17.51000n    4.0000     1.7922  
   17.52000n    4.0000     1.7937  
   17.53000n    4.0000     1.7951  
   17.54000n    4.0000     1.7966  
   17.55000n    4.0000     1.7980  
   17.56000n    4.0000     1.7995  
   17.57000n    4.0000     1.8009  
   17.58000n    4.0000     1.8024  
   17.59000n    4.0000     1.8038  
   17.60000n    4.0000     1.8053  
   17.61000n    4.0000     1.8067  
   17.62000n    4.0000     1.8082  
   17.63000n    4.0000     1.8096  
   17.64000n    4.0000     1.8111  
   17.65000n    4.0000     1.8125  
   17.66000n    4.0000     1.8140  
   17.67000n    4.0000     1.8154  
   17.68000n    4.0000     1.8169  
   17.69000n    4.0000     1.8183  
   17.70000n    4.0000     1.8198  
   17.71000n    4.0000     1.8212  
   17.72000n    4.0000     1.8227  
   17.73000n    4.0000     1.8241  
   17.74000n    4.0000     1.8256  
   17.75000n    4.0000     1.8271  
   17.76000n    4.0000     1.8285  
   17.77000n    4.0000     1.8300  
   17.78000n    4.0000     1.8314  
   17.79000n    4.0000     1.8329  
   17.80000n    4.0000     1.8343  
   17.81000n    4.0000     1.8358  
   17.82000n    4.0000     1.8372  
   17.83000n    4.0000     1.8387  
   17.84000n    4.0000     1.8401  
   17.85000n    4.0000     1.8416  
   17.86000n    4.0000     1.8430  
   17.87000n    4.0000     1.8445  
   17.88000n    4.0000     1.8459  
   17.89000n    4.0000     1.8474  
   17.90000n    4.0000     1.8488  
   17.91000n    4.0000     1.8503  
   17.92000n    4.0000     1.8517  
   17.93000n    4.0000     1.8532  
   17.94000n    4.0000     1.8546  
   17.95000n    4.0000     1.8561  
   17.96000n    4.0000     1.8575  
   17.97000n    4.0000     1.8590  
   17.98000n    4.0000     1.8604  
   17.99000n    4.0000     1.8619  
   18.00000n    4.0000     1.8633  
   18.01000n    4.0000     1.8648  
   18.02000n    4.0000     1.8662  
   18.03000n    4.0000     1.8677  
   18.04000n    4.0000     1.8691  
   18.05000n    4.0000     1.8706  
   18.06000n    4.0000     1.8720  
   18.07000n    4.0000     1.8735  
   18.08000n    4.0000     1.8750  
   18.09000n    4.0000     1.8764  
   18.10000n    4.0000     1.8779  
   18.11000n    4.0000     1.8793  
   18.12000n    4.0000     1.8808  
   18.13000n    4.0000     1.8822  
   18.14000n    4.0000     1.8837  
   18.15000n    4.0000     1.8851  
   18.16000n    4.0000     1.8866  
   18.17000n    4.0000     1.8880  
   18.18000n    4.0000     1.8895  
   18.19000n    4.0000     1.8909  
   18.20000n    4.0000     1.8924  
   18.21000n    4.0000     1.8938  
   18.22000n    4.0000     1.8953  
   18.23000n    4.0000     1.8967  
   18.24000n    4.0000     1.8982  
   18.25000n    4.0000     1.8996  
   18.26000n    4.0000     1.9011  
   18.27000n    4.0000     1.9025  
   18.28000n    4.0000     1.9040  
   18.29000n    4.0000     1.9054  
   18.30000n    4.0000     1.9067  
   18.31000n    4.0000     1.9079  
   18.32000n    4.0000     1.9092  
   18.33000n    4.0000     1.9105  
   18.34000n    4.0000     1.9118  
   18.35000n    4.0000     1.9130  
   18.36000n    4.0000     1.9143  
   18.37000n    4.0000     1.9156  
   18.38000n    4.0000     1.9169  
   18.39000n    4.0000     1.9181  
   18.40000n    4.0000     1.9194  
   18.41000n    4.0000     1.9207  
   18.42000n    4.0000     1.9220  
   18.43000n    4.0000     1.9232  
   18.44000n    4.0000     1.9245  
   18.45000n    4.0000     1.9258  
   18.46000n    4.0000     1.9271  
   18.47000n    4.0000     1.9283  
   18.48000n    4.0000     1.9296  
   18.49000n    4.0000     1.9309  
   18.50000n    4.0000     1.9322  
   18.51000n    4.0000     1.9334  
   18.52000n    4.0000     1.9347  
   18.53000n    4.0000     1.9360  
   18.54000n    4.0000     1.9373  
   18.55000n    4.0000     1.9385  
   18.56000n    4.0000     1.9398  
   18.57000n    4.0000     1.9411  
   18.58000n    4.0000     1.9424  
   18.59000n    4.0000     1.9436  
   18.60000n    4.0000     1.9449  
   18.61000n    4.0000     1.9462  
   18.62000n    4.0000     1.9475  
   18.63000n    4.0000     1.9487  
   18.64000n    4.0000     1.9500  
   18.65000n    4.0000     1.9513  
   18.66000n    4.0000     1.9525  
   18.67000n    4.0000     1.9538  
   18.68000n    4.0000     1.9551  
   18.69000n    4.0000     1.9564  
   18.70000n    4.0000     1.9576  
   18.71000n    4.0000     1.9589  
   18.72000n    4.0000     1.9602  
   18.73000n    4.0000     1.9615  
   18.74000n    4.0000     1.9627  
   18.75000n    4.0000     1.9640  
   18.76000n    4.0000     1.9653  
   18.77000n    4.0000     1.9666  
   18.78000n    4.0000     1.9678  
   18.79000n    4.0000     1.9691  
   18.80000n    4.0000     1.9704  
   18.81000n    4.0000     1.9717  
   18.82000n    4.0000     1.9729  
   18.83000n    4.0000     1.9742  
   18.84000n    4.0000     1.9755  
   18.85000n    4.0000     1.9768  
   18.86000n    4.0000     1.9780  
   18.87000n    4.0000     1.9793  
   18.88000n    4.0000     1.9806  
   18.89000n    4.0000     1.9819  
   18.90000n    4.0000     1.9831  
   18.91000n    4.0000     1.9844  
   18.92000n    4.0000     1.9857  
   18.93000n    4.0000     1.9870  
   18.94000n    4.0000     1.9882  
   18.95000n    4.0000     1.9895  
   18.96000n    4.0000     1.9908  
   18.97000n    4.0000     1.9921  
   18.98000n    4.0000     1.9933  
   18.99000n    4.0000     1.9946  
   19.00000n    4.0000     1.9959  
   19.01000n    4.0000     1.9972  
   19.02000n    4.0000     1.9984  
   19.03000n    4.0000     1.9997  
   19.04000n    4.0000     2.0010  
   19.05000n    4.0000     2.0023  
   19.06000n    4.0000     2.0035  
   19.07000n    4.0000     2.0048  
   19.08000n    4.0000     2.0061  
   19.09000n    4.0000     2.0074  
   19.10000n    4.0000     2.0086  
   19.11000n    4.0000     2.0099  
   19.12000n    4.0000     2.0112  
   19.13000n    4.0000     2.0125  
   19.14000n    4.0000     2.0137  
   19.15000n    4.0000     2.0150  
   19.16000n    4.0000     2.0163  
   19.17000n    4.0000     2.0176  
   19.18000n    4.0000     2.0188  
   19.19000n    4.0000     2.0201  
   19.20000n    4.0000     2.0214  
   19.21000n    4.0000     2.0227  
   19.22000n    4.0000     2.0239  
   19.23000n    4.0000     2.0252  
   19.24000n    4.0000     2.0265  
   19.25000n    4.0000     2.0278  
   19.26000n    4.0000     2.0290  
   19.27000n    4.0000     2.0303  
   19.28000n    4.0000     2.0316  
   19.29000n    4.0000     2.0329  
   19.30000n    4.0000     2.0341  
   19.31000n    4.0000     2.0354  
   19.32000n    4.0000     2.0367  
   19.33000n    4.0000     2.0380  
   19.34000n    4.0000     2.0392  
   19.35000n    4.0000     2.0405  
   19.36000n    4.0000     2.0418  
   19.37000n    4.0000     2.0431  
   19.38000n    4.0000     2.0443  
   19.39000n    4.0000     2.0456  
   19.40000n    4.0000     2.0469  
   19.41000n    4.0000     2.0482  
   19.42000n    4.0000     2.0494  
   19.43000n    4.0000     2.0507  
   19.44000n    4.0000     2.0520  
   19.45000n    4.0000     2.0533  
   19.46000n    4.0000     2.0545  
   19.47000n    4.0000     2.0558  
   19.48000n    4.0000     2.0571  
   19.49000n    4.0000     2.0584  
   19.50000n    4.0000     2.0596  
   19.51000n    4.0000     2.0609  
   19.52000n    4.0000     2.0622  
   19.53000n    4.0000     2.0635  
   19.54000n    4.0000     2.0647  
   19.55000n    4.0000     2.0660  
   19.56000n    4.0000     2.0673  
   19.57000n    4.0000     2.0686  
   19.58000n    4.0000     2.0698  
   19.59000n    4.0000     2.0711  
   19.60000n    4.0000     2.0724  
   19.61000n    4.0000     2.0737  
   19.62000n    4.0000     2.0749  
   19.63000n    4.0000     2.0762  
   19.64000n    4.0000     2.0775  
   19.65000n    4.0000     2.0788  
   19.66000n    4.0000     2.0800  
   19.67000n    4.0000     2.0813  
   19.68000n    4.0000     2.0826  
   19.69000n    4.0000     2.0839  
   19.70000n    4.0000     2.0851  
   19.71000n    4.0000     2.0864  
   19.72000n    4.0000     2.0877  
   19.73000n    4.0000     2.0890  
   19.74000n    4.0000     2.0902  
   19.75000n    4.0000     2.0915  
   19.76000n    4.0000     2.0928  
   19.77000n    4.0000     2.0941  
   19.78000n    4.0000     2.0953  
   19.79000n    4.0000     2.0966  
   19.80000n    4.0000     2.0979  
   19.81000n    4.0000     2.0992  
   19.82000n    4.0000     2.1004  
   19.83000n    4.0000     2.1017  
   19.84000n    4.0000     2.1030  
   19.85000n    4.0000     2.1043  
   19.86000n    4.0000     2.1055  
   19.87000n    4.0000     2.1068  
   19.88000n    4.0000     2.1081  
   19.89000n    4.0000     2.1094  
   19.90000n    4.0000     2.1106  
   19.91000n    4.0000     2.1119  
   19.92000n    4.0000     2.1132  
   19.93000n    4.0000     2.1145  
   19.94000n    4.0000     2.1157  
   19.95000n    4.0000     2.1170  
   19.96000n    4.0000     2.1183  
   19.97000n    4.0000     2.1196  
   19.98000n    4.0000     2.1208  
   19.99000n    4.0000     2.1221  
   20.00000n    4.0000     2.1234  
   20.01000n    4.0000     2.1246  
   20.02000n    4.0000     2.1259  
   20.03000n    4.0000     2.1272  
   20.04000n    4.0000     2.1285  
   20.05000n    4.0000     2.1297  
   20.06000n    4.0000     2.1310  
   20.07000n    4.0000     2.1323  
   20.08000n    4.0000     2.1336  
   20.09000n    4.0000     2.1348  
   20.10000n    4.0000     2.1361  
   20.11000n    4.0000     2.1374  
   20.12000n    4.0000     2.1387  
   20.13000n    4.0000     2.1399  
   20.14000n    4.0000     2.1412  
   20.15000n    4.0000     2.1425  
   20.16000n    4.0000     2.1438  
   20.17000n    4.0000     2.1450  
   20.18000n    4.0000     2.1463  
   20.19000n    4.0000     2.1476  
   20.20000n    4.0000     2.1489  
   20.21000n    4.0000     2.1501  
   20.22000n    4.0000     2.1514  
   20.23000n    4.0000     2.1527  
   20.24000n    4.0000     2.1540  
   20.25000n    4.0000     2.1552  
   20.26000n    4.0000     2.1565  
   20.27000n    4.0000     2.1578  
   20.28000n    4.0000     2.1591  
   20.29000n    4.0000     2.1603  
   20.30000n    4.0000     2.1616  
   20.31000n    4.0000     2.1629  
   20.32000n    4.0000     2.1642  
   20.33000n    4.0000     2.1654  
   20.34000n    4.0000     2.1667  
   20.35000n    4.0000     2.1680  
   20.36000n    4.0000     2.1693  
   20.37000n    4.0000     2.1705  
   20.38000n    4.0000     2.1718  
   20.39000n    4.0000     2.1731  
   20.40000n    4.0000     2.1744  
   20.41000n    4.0000     2.1756  
   20.42000n    4.0000     2.1769  
   20.43000n    4.0000     2.1782  
   20.44000n    4.0000     2.1795  
   20.45000n    4.0000     2.1807  
   20.46000n    4.0000     2.1820  
   20.47000n    4.0000     2.1833  
   20.48000n    4.0000     2.1846  
   20.49000n    4.0000     2.1858  
   20.50000n    4.0000     2.1871  
   20.51000n    4.0000     2.1884  
   20.52000n    4.0000     2.1897  
   20.53000n    4.0000     2.1909  
   20.54000n    4.0000     2.1922  
   20.55000n    4.0000     2.1935  
   20.56000n    4.0000     2.1948  
   20.57000n    4.0000     2.1960  
   20.58000n    4.0000     2.1973  
   20.59000n    4.0000     2.1986  
   20.60000n    4.0000     2.1999  
   20.61000n    4.0000     2.2011  
   20.62000n    4.0000     2.2024  
   20.63000n    4.0000     2.2037  
   20.64000n    4.0000     2.2050  
   20.65000n    4.0000     2.2062  
   20.66000n    4.0000     2.2075  
   20.67000n    4.0000     2.2086  
   20.68000n    4.0000     2.2097  
   20.69000n    4.0000     2.2108  
   20.70000n    4.0000     2.2119  
   20.71000n    4.0000     2.2129  
   20.72000n    4.0000     2.2140  
   20.73000n    4.0000     2.2151  
   20.74000n    4.0000     2.2162  
   20.75000n    4.0000     2.2173  
   20.76000n    4.0000     2.2183  
   20.77000n    4.0000     2.2194  
   20.78000n    4.0000     2.2205  
   20.79000n    4.0000     2.2216  
   20.80000n    4.0000     2.2226  
   20.81000n    4.0000     2.2237  
   20.82000n    4.0000     2.2248  
   20.83000n    4.0000     2.2259  
   20.84000n    4.0000     2.2270  
   20.85000n    4.0000     2.2280  
   20.86000n    4.0000     2.2291  
   20.87000n    4.0000     2.2302  
   20.88000n    4.0000     2.2313  
   20.89000n    4.0000     2.2323  
   20.90000n    4.0000     2.2334  
   20.91000n    4.0000     2.2345  
   20.92000n    4.0000     2.2356  
   20.93000n    4.0000     2.2367  
   20.94000n    4.0000     2.2377  
   20.95000n    4.0000     2.2388  
   20.96000n    4.0000     2.2399  
   20.97000n    4.0000     2.2410  
   20.98000n    4.0000     2.2420  
   20.99000n    4.0000     2.2431  
   21.00000n    4.0000     2.2442  
   21.01000n    4.0000     2.2453  
   21.02000n    4.0000     2.2464  
   21.03000n    4.0000     2.2474  
   21.04000n    4.0000     2.2485  
   21.05000n    4.0000     2.2496  
   21.06000n    4.0000     2.2507  
   21.07000n    4.0000     2.2517  
   21.08000n    4.0000     2.2528  
   21.09000n    4.0000     2.2539  
   21.10000n    4.0000     2.2550  
   21.11000n    4.0000     2.2561  
   21.12000n    4.0000     2.2571  
   21.13000n    4.0000     2.2582  
   21.14000n    4.0000     2.2593  
   21.15000n    4.0000     2.2604  
   21.16000n    4.0000     2.2614  
   21.17000n    4.0000     2.2625  
   21.18000n    4.0000     2.2636  
   21.19000n    4.0000     2.2647  
   21.20000n    4.0000     2.2658  
   21.21000n    4.0000     2.2668  
   21.22000n    4.0000     2.2679  
   21.23000n    4.0000     2.2690  
   21.24000n    4.0000     2.2701  
   21.25000n    4.0000     2.2711  
   21.26000n    4.0000     2.2722  
   21.27000n    4.0000     2.2733  
   21.28000n    4.0000     2.2744  
   21.29000n    4.0000     2.2755  
   21.30000n    4.0000     2.2765  
   21.31000n    4.0000     2.2776  
   21.32000n    4.0000     2.2787  
   21.33000n    4.0000     2.2798  
   21.34000n    4.0000     2.2808  
   21.35000n    4.0000     2.2819  
   21.36000n    4.0000     2.2830  
   21.37000n    4.0000     2.2841  
   21.38000n    4.0000     2.2852  
   21.39000n    4.0000     2.2862  
   21.40000n    4.0000     2.2873  
   21.41000n    4.0000     2.2884  
   21.42000n    4.0000     2.2895  
   21.43000n    4.0000     2.2905  
   21.44000n    4.0000     2.2916  
   21.45000n    4.0000     2.2927  
   21.46000n    4.0000     2.2938  
   21.47000n    4.0000     2.2949  
   21.48000n    4.0000     2.2959  
   21.49000n    4.0000     2.2970  
   21.50000n    4.0000     2.2981  
   21.51000n    4.0000     2.2992  
   21.52000n    4.0000     2.3002  
   21.53000n    4.0000     2.3013  
   21.54000n    4.0000     2.3024  
   21.55000n    4.0000     2.3035  
   21.56000n    4.0000     2.3046  
   21.57000n    4.0000     2.3056  
   21.58000n    4.0000     2.3067  
   21.59000n    4.0000     2.3078  
[...]
   95.00000n    4.0000     3.9873  
   95.01000n    4.0000     3.9873  
   95.02000n    4.0000     3.9873  
   95.03000n    4.0000     3.9873  
   95.04000n    4.0000     3.9873  
   95.05000n    4.0000     3.9873  
   95.06000n    4.0000     3.9873  
   95.07000n    4.0000     3.9873  
   95.08000n    4.0000     3.9873  
   95.09000n    4.0000     3.9873  
   95.10000n    4.0000     3.9873  
   95.11000n    4.0000     3.9873  
   95.12000n    4.0000     3.9874  
   95.13000n    4.0000     3.9874  
   95.14000n    4.0000     3.9874  
   95.15000n    4.0000     3.9874  
   95.16000n    4.0000     3.9874  
   95.17000n    4.0000     3.9874  
   95.18000n    4.0000     3.9874  
   95.19000n    4.0000     3.9874  
   95.20000n    4.0000     3.9874  
   95.21000n    4.0000     3.9874  
   95.22000n    4.0000     3.9874  
   95.23000n    4.0000     3.9874  
   95.24000n    4.0000     3.9874  
   95.25000n    4.0000     3.9875  
   95.26000n    4.0000     3.9875  
   95.27000n    4.0000     3.9875  
   95.28000n    4.0000     3.9875  
   95.29000n    4.0000     3.9875  
   95.30000n    4.0000     3.9875  
   95.31000n    4.0000     3.9875  
   95.32000n    4.0000     3.9875  
   95.33000n    4.0000     3.9875  
   95.34000n    4.0000     3.9875  
   95.35000n    4.0000     3.9875  
   95.36000n    4.0000     3.9875  
   95.37000n    4.0000     3.9875  
   95.38000n    4.0000     3.9876  
   95.39000n    4.0000     3.9876  
   95.40000n    4.0000     3.9876  
   95.41000n    4.0000     3.9876  
   95.42000n    4.0000     3.9876  
   95.43000n    4.0000     3.9876  
   95.44000n    4.0000     3.9876  
   95.45000n    4.0000     3.9876  
   95.46000n    4.0000     3.9876  
   95.47000n    4.0000     3.9876  
   95.48000n    4.0000     3.9876  
   95.49000n    4.0000     3.9876  
   95.50000n    4.0000     3.9877  
   95.51000n    4.0000     3.9877  
   95.52000n    4.0000     3.9877  
   95.53000n    4.0000     3.9877  
   95.54000n    4.0000     3.9877  
   95.55000n    4.0000     3.9877  
   95.56000n    4.0000     3.9877  
   95.57000n    4.0000     3.9877  
   95.58000n    4.0000     3.9877  
   95.59000n    4.0000     3.9877  
   95.60000n    4.0000     3.9877  
   95.61000n    4.0000     3.9877  
   95.62000n    4.0000     3.9877  
   95.63000n    4.0000     3.9878  
   95.64000n    4.0000     3.9878  
   95.65000n    4.0000     3.9878  
   95.66000n    4.0000     3.9878  
   95.67000n    4.0000     3.9878  
   95.68000n    4.0000     3.9878  
   95.69000n    4.0000     3.9878  
   95.70000n    4.0000     3.9878  
   95.71000n    4.0000     3.9878  
   95.72000n    4.0000     3.9878  
   95.73000n    4.0000     3.9878  
   95.74000n    4.0000     3.9878  
   95.75000n    4.0000     3.9878  
   95.76000n    4.0000     3.9879  
   95.77000n    4.0000     3.9879  
   95.78000n    4.0000     3.9879  
   95.79000n    4.0000     3.9879  
   95.80000n    4.0000     3.9879  
   95.81000n    4.0000     3.9879  
   95.82000n    4.0000     3.9879  
   95.83000n    4.0000     3.9879  
   95.84000n    4.0000     3.9879  
   95.85000n    4.0000     3.9879  
   95.86000n    4.0000     3.9879  
   95.87000n    4.0000     3.9879  
   95.88000n    4.0000     3.9879  
   95.89000n    4.0000     3.9880  
   95.90000n    4.0000     3.9880  
   95.91000n    4.0000     3.9880  
   95.92000n    4.0000     3.9880  
   95.93000n    4.0000     3.9880  
   95.94000n    4.0000     3.9880  
   95.95000n    4.0000     3.9880  
   95.96000n    4.0000     3.9880  
   95.97000n    4.0000     3.9880  
   95.98000n    4.0000     3.9880  
   95.99000n    4.0000     3.9880  
   96.00000n    4.0000     3.9880  
   96.01000n    4.0000     3.9880  
   96.02000n    4.0000     3.9881  
   96.03000n    4.0000     3.9881  
   96.04000n    4.0000     3.9881  
   96.05000n    4.0000     3.9881  
   96.06000n    4.0000     3.9881  
   96.07000n    4.0000     3.9881  
   96.08000n    4.0000     3.9881  
   96.09000n    4.0000     3.9881  
   96.10000n    4.0000     3.9881  
   96.11000n    4.0000     3.9881  
   96.12000n    4.0000     3.9881  
   96.13000n    4.0000     3.9881  
   96.14000n    4.0000     3.9881  
   96.15000n    4.0000     3.9882  
   96.16000n    4.0000     3.9882  
   96.17000n    4.0000     3.9882  
   96.18000n    4.0000     3.9882  
   96.19000n    4.0000     3.9882  
   96.20000n    4.0000     3.9882  
   96.21000n    4.0000     3.9882  
   96.22000n    4.0000     3.9882  
   96.23000n    4.0000     3.9882  
   96.24000n    4.0000     3.9882  
   96.25000n    4.0000     3.9882  
   96.26000n    4.0000     3.9882  
   96.27000n    4.0000     3.9882  
   96.28000n    4.0000     3.9883  
   96.29000n    4.0000     3.9883  
   96.30000n    4.0000     3.9883  
   96.31000n    4.0000     3.9883  
   96.32000n    4.0000     3.9883  
   96.33000n    4.0000     3.9883  
   96.34000n    4.0000     3.9883  
   96.35000n    4.0000     3.9883  
   96.36000n    4.0000     3.9883  
   96.37000n    4.0000     3.9883  
   96.38000n    4.0000     3.9883  
   96.39000n    4.0000     3.9883  
   96.40000n    4.0000     3.9883  
   96.41000n    4.0000     3.9884  
   96.42000n    4.0000     3.9884  
   96.43000n    4.0000     3.9884  
   96.44000n    4.0000     3.9884  
   96.45000n    4.0000     3.9884  
   96.46000n    4.0000     3.9884  
   96.47000n    4.0000     3.9884  
   96.48000n    4.0000     3.9884  
   96.49000n    4.0000     3.9884  
   96.50000n    4.0000     3.9884  
   96.51000n    4.0000     3.9884  
   96.52000n    4.0000     3.9884  
   96.53000n    4.0000     3.9884  
   96.54000n    4.0000     3.9885  
   96.55000n    4.0000     3.9885  
   96.56000n    4.0000     3.9885  
   96.57000n    4.0000     3.9885  
   96.58000n    4.0000     3.9885  
   96.59000n    4.0000     3.9885  
   96.60000n    4.0000     3.9885  
   96.61000n    4.0000     3.9885  
   96.62000n    4.0000     3.9885  
   96.63000n    4.0000     3.9885  
   96.64000n    4.0000     3.9885  
   96.65000n    4.0000     3.9885  
   96.66000n    4.0000     3.9885  
   96.67000n    4.0000     3.9886  
   96.68000n    4.0000     3.9886  
   96.69000n    4.0000     3.9886  
   96.70000n    4.0000     3.9886  
   96.71000n    4.0000     3.9886  
   96.72000n    4.0000     3.9886  
   96.73000n    4.0000     3.9886  
   96.74000n    4.0000     3.9886  
   96.75000n    4.0000     3.9886  
   96.76000n    4.0000     3.9886  
   96.77000n    4.0000     3.9886  
   96.78000n    4.0000     3.9886  
   96.79000n    4.0000     3.9886  
   96.80000n    4.0000     3.9887  
   96.81000n    4.0000     3.9887  
   96.82000n    4.0000     3.9887  
   96.83000n    4.0000     3.9887  
   96.84000n    4.0000     3.9887  
   96.85000n    4.0000     3.9887  
   96.86000n    4.0000     3.9887  
   96.87000n    4.0000     3.9887  
   96.88000n    4.0000     3.9887  
   96.89000n    4.0000     3.9887  
   96.90000n    4.0000     3.9887  
   96.91000n    4.0000     3.9887  
   96.92000n    4.0000     3.9887  
   96.93000n    4.0000     3.9888  
   96.94000n    4.0000     3.9888  
   96.95000n    4.0000     3.9888  
   96.96000n    4.0000     3.9888  
   96.97000n    4.0000     3.9888  
   96.98000n    4.0000     3.9888  
   96.99000n    4.0000     3.9888  
   97.00000n    4.0000     3.9888  
   97.01000n    4.0000     3.9888  
   97.02000n    4.0000     3.9888  
   97.03000n    4.0000     3.9888  
   97.04000n    4.0000     3.9888  
   97.05000n    4.0000     3.9888  
   97.06000n    4.0000     3.9889  
   97.07000n    4.0000     3.9889  
   97.08000n    4.0000     3.9889  
   97.09000n    4.0000     3.9889  
   97.10000n    4.0000     3.9889  
   97.11000n    4.0000     3.9889  
   97.12000n    4.0000     3.9889  
   97.13000n    4.0000     3.9889  
   97.14000n    4.0000     3.9889  
   97.15000n    4.0000     3.9889  
   97.16000n    4.0000     3.9889  
   97.17000n    4.0000     3.9889  
   97.18000n    4.0000     3.9889  
   97.19000n    4.0000     3.9890  
   97.20000n    4.0000     3.9890  
   97.21000n    4.0000     3.9890  
   97.22000n    4.0000     3.9890  
   97.23000n    4.0000     3.9890  
   97.24000n    4.0000     3.9890  
   97.25000n    4.0000     3.9890  
   97.26000n    4.0000     3.9890  
   97.27000n    4.0000     3.9890  
   97.28000n    4.0000     3.9890  
   97.29000n    4.0000     3.9890  
   97.30000n    4.0000     3.9890  
   97.31000n    4.0000     3.9890  
   97.32000n    4.0000     3.9891  
   97.33000n    4.0000     3.9891  
   97.34000n    4.0000     3.9891  
   97.35000n    4.0000     3.9891  
   97.36000n    4.0000     3.9891  
   97.37000n    4.0000     3.9891  
   97.38000n    4.0000     3.9891  
   97.39000n    4.0000     3.9891  
   97.40000n    4.0000     3.9891  
   97.41000n    4.0000     3.9891  
   97.42000n    4.0000     3.9891  
   97.43000n    4.0000     3.9891  
   97.44000n    4.0000     3.9891  
   97.45000n    4.0000     3.9892  
   97.46000n    4.0000     3.9892  
   97.47000n    4.0000     3.9892  
   97.48000n    4.0000     3.9892  
   97.49000n    4.0000     3.9892  
   97.50000n    4.0000     3.9892  
   97.51000n    4.0000     3.9892  
   97.52000n    4.0000     3.9892  
   97.53000n    4.0000     3.9892  
   97.54000n    4.0000     3.9892  
   97.55000n    4.0000     3.9892  
   97.56000n    4.0000     3.9892  
   97.57000n    4.0000     3.9893  
   97.58000n    4.0000     3.9893  
   97.59000n    4.0000     3.9893  
   97.60000n    4.0000     3.9893  
   97.61000n    4.0000     3.9893  
   97.62000n    4.0000     3.9893  
   97.63000n    4.0000     3.9893  
   97.64000n    4.0000     3.9893  
   97.65000n    4.0000     3.9893  
   97.66000n    4.0000     3.9893  
   97.67000n    4.0000     3.9893  
   97.68000n    4.0000     3.9893  
   97.69000n    4.0000     3.9893  
   97.70000n    4.0000     3.9894  
   97.71000n    4.0000     3.9894  
   97.72000n    4.0000     3.9894  
   97.73000n    4.0000     3.9894  
   97.74000n    4.0000     3.9894  
   97.75000n    4.0000     3.9894  
   97.76000n    4.0000     3.9894  
   97.77000n    4.0000     3.9894  
   97.78000n    4.0000     3.9894  
   97.79000n    4.0000     3.9894  
   97.80000n    4.0000     3.9894  
   97.81000n    4.0000     3.9894  
   97.82000n    4.0000     3.9894  
   97.83000n    4.0000     3.9895  
   97.84000n    4.0000     3.9895  
   97.85000n    4.0000     3.9895  
   97.86000n    4.0000     3.9895  
   97.87000n    4.0000     3.9895  
   97.88000n    4.0000     3.9895  
   97.89000n    4.0000     3.9895  
   97.90000n    4.0000     3.9895  
   97.91000n    4.0000     3.9895  
   97.92000n    4.0000     3.9895  
   97.93000n    4.0000     3.9895  
   97.94000n    4.0000     3.9895  
   97.95000n    4.0000     3.9895  
   97.96000n    4.0000     3.9896  
   97.97000n    4.0000     3.9896  
   97.98000n    4.0000     3.9896  
   97.99000n    4.0000     3.9896  
   98.00000n    4.0000     3.9896  
   98.01000n    4.0000     3.9896  
   98.02000n    4.0000     3.9896  
   98.03000n    4.0000     3.9896  
   98.04000n    4.0000     3.9896  
   98.05000n    4.0000     3.9896  
   98.06000n    4.0000     3.9896  
   98.07000n    4.0000     3.9896  
   98.08000n    4.0000     3.9896  
   98.09000n    4.0000     3.9897  
   98.10000n    4.0000     3.9897  
   98.11000n    4.0000     3.9897  
   98.12000n    4.0000     3.9897  
   98.13000n    4.0000     3.9897  
   98.14000n    4.0000     3.9897  
   98.15000n    4.0000     3.9897  
   98.16000n    4.0000     3.9897  
   98.17000n    4.0000     3.9897  
   98.18000n    4.0000     3.9897  
   98.19000n    4.0000     3.9897  
   98.20000n    4.0000     3.9897  
   98.21000n    4.0000     3.9897  
   98.22000n    4.0000     3.9898  
   98.23000n    4.0000     3.9898  
   98.24000n    4.0000     3.9898  
   98.25000n    4.0000     3.9898  
   98.26000n    4.0000     3.9898  
   98.27000n    4.0000     3.9898  
   98.28000n    4.0000     3.9898  
   98.29000n    4.0000     3.9898  
   98.30000n    4.0000     3.9898  
   98.31000n    4.0000     3.9898  
   98.32000n    4.0000     3.9898  
   98.33000n    4.0000     3.9898  
   98.34000n    4.0000     3.9898  
   98.35000n    4.0000     3.9899  
   98.36000n    4.0000     3.9899  
   98.37000n    4.0000     3.9899  
   98.38000n    4.0000     3.9899  
   98.39000n    4.0000     3.9899  
   98.40000n    4.0000     3.9899  
   98.41000n    4.0000     3.9899  
   98.42000n    4.0000     3.9899  
   98.43000n    4.0000     3.9899  
   98.44000n    4.0000     3.9899  
   98.45000n    4.0000     3.9899  
   98.46000n    4.0000     3.9899  
   98.47000n    4.0000     3.9899  
   98.48000n    4.0000     3.9900  
   98.49000n    4.0000     3.9900  
   98.50000n    4.0000     3.9900  
   98.51000n    4.0000     3.9900  
   98.52000n    4.0000     3.9900  
   98.53000n    4.0000     3.9900  
   98.54000n    4.0000     3.9900  
   98.55000n    4.0000     3.9900  
   98.56000n    4.0000     3.9900  
   98.57000n    4.0000     3.9900  
   98.58000n    4.0000     3.9900  
   98.59000n    4.0000     3.9900  
   98.60000n    4.0000     3.9900  
   98.61000n    4.0000     3.9901  
   98.62000n    4.0000     3.9901  
   98.63000n    4.0000     3.9901  
   98.64000n    4.0000     3.9901  
   98.65000n    4.0000     3.9901  
   98.66000n    4.0000     3.9901  
   98.67000n    4.0000     3.9901  
   98.68000n    4.0000     3.9901  
   98.69000n    4.0000     3.9901  
   98.70000n    4.0000     3.9901  
   98.71000n    4.0000     3.9901  
   98.72000n    4.0000     3.9901  
   98.73000n    4.0000     3.9901  
   98.74000n    4.0000     3.9902  
   98.75000n    4.0000     3.9902  
   98.76000n    4.0000     3.9902  
   98.77000n    4.0000     3.9902  
   98.78000n    4.0000     3.9902  
   98.79000n    4.0000     3.9902  
   98.80000n    4.0000     3.9902  
   98.81000n    4.0000     3.9902  
   98.82000n    4.0000     3.9902  
   98.83000n    4.0000     3.9902  
   98.84000n    4.0000     3.9902  
   98.85000n    4.0000     3.9902  
   98.86000n    4.0000     3.9902  
   98.87000n    4.0000     3.9903  
   98.88000n    4.0000     3.9903  
   98.89000n    4.0000     3.9903  
   98.90000n    4.0000     3.9903  
   98.91000n    4.0000     3.9903  
   98.92000n    4.0000     3.9903  
   98.93000n    4.0000     3.9903  
   98.94000n    4.0000     3.9903  
   98.95000n    4.0000     3.9903  
   98.96000n    4.0000     3.9903  
   98.97000n    4.0000     3.9903  
   98.98000n    4.0000     3.9903  
   98.99000n    4.0000     3.9903  
   99.00000n    4.0000     3.9903  
   99.01000n    4.0000     3.9903  
   99.02000n    4.0000     3.9904  
   99.03000n    4.0000     3.9904  
   99.04000n    4.0000     3.9904  
   99.05000n    4.0000     3.9904  
   99.06000n    4.0000     3.9904  
   99.07000n    4.0000     3.9904  
   99.08000n    4.0000     3.9904  
   99.09000n    4.0000     3.9904  
   99.10000n    4.0000     3.9904  
   99.11000n    4.0000     3.9904  
   99.12000n    4.0000     3.9904  
   99.13000n    4.0000     3.9904  
   99.14000n    4.0000     3.9904  
   99.15000n    4.0000     3.9904  
   99.16000n    4.0000     3.9904  
   99.17000n    4.0000     3.9904  
   99.18000n    4.0000     3.9905  
   99.19000n    4.0000     3.9905  
   99.20000n    4.0000     3.9905  
   99.21000n    4.0000     3.9905  
   99.22000n    4.0000     3.9905  
   99.23000n    4.0000     3.9905  
   99.24000n    4.0000     3.9905  
   99.25000n    4.0000     3.9905  
   99.26000n    4.0000     3.9905  
   99.27000n    4.0000     3.9905  
   99.28000n    4.0000     3.9905  
   99.29000n    4.0000     3.9905  
   99.30000n    4.0000     3.9905  
   99.31000n    4.0000     3.9905  
   99.32000n    4.0000     3.9905  
   99.33000n    4.0000     3.9905  
   99.34000n    4.0000     3.9906  
   99.35000n    4.0000     3.9906  
   99.36000n    4.0000     3.9906  
   99.37000n    4.0000     3.9906  
   99.38000n    4.0000     3.9906  
   99.39000n    4.0000     3.9906  
   99.40000n    4.0000     3.9906  
   99.41000n    4.0000     3.9906  
   99.42000n    4.0000     3.9906  
   99.43000n    4.0000     3.9906  
   99.44000n    4.0000     3.9906  
   99.45000n    4.0000     3.9906  
   99.46000n    4.0000     3.9906  
   99.47000n    4.0000     3.9906  
   99.48000n    4.0000     3.9906  
   99.49000n    4.0000     3.9906  
   99.50000n    4.0000     3.9907  
   99.51000n    4.0000     3.9907  
   99.52000n    4.0000     3.9907  
   99.53000n    4.0000     3.9907  
   99.54000n    4.0000     3.9907  
   99.55000n    4.0000     3.9907  
   99.56000n    4.0000     3.9907  
   99.57000n    4.0000     3.9907  
   99.58000n    4.0000     3.9907  
   99.59000n    4.0000     3.9907  
   99.60000n    4.0000     3.9907  
   99.61000n    4.0000     3.9907  
   99.62000n    4.0000     3.9907  
   99.63000n    4.0000     3.9907  
   99.64000n    4.0000     3.9907  
   99.65000n    4.0000     3.9907  
   99.66000n    4.0000     3.9908  
   99.67000n    4.0000     3.9908  
   99.68000n    4.0000     3.9908  
   99.69000n    4.0000     3.9908  
   99.70000n    4.0000     3.9908  
   99.71000n    4.0000     3.9908  
   99.72000n    4.0000     3.9908  
   99.73000n    4.0000     3.9908  
   99.74000n    4.0000     3.9908  
   99.75000n    4.0000     3.9908  
   99.76000n    4.0000     3.9908  
   99.77000n    4.0000     3.9908  
   99.78000n    4.0000     3.9908  
   99.79000n    4.0000     3.9908  
   99.80000n    4.0000     3.9908  
   99.81000n    4.0000     3.9908  
   99.82000n    4.0000     3.9909  
   99.83000n    4.0000     3.9909  
   99.84000n    4.0000     3.9909  
   99.85000n    4.0000     3.9909  
   99.86000n    4.0000     3.9909  
   99.87000n    4.0000     3.9909  
   99.88000n    4.0000     3.9909  
   99.89000n    4.0000     3.9909  
   99.90000n    4.0000     3.9909  
   99.91000n    4.0000     3.9909  
   99.92000n    4.0000     3.9909  
   99.93000n    4.0000     3.9909  
   99.94000n    4.0000     3.9909  
   99.95000n    4.0000     3.9909  
   99.96000n    4.0000     3.9909  
   99.97000n    4.0000     3.9909  
   99.98000n    4.0000     3.9909  
   99.99000n    4.0000     3.9910  
  100.00000n    4.0000     3.9910  
y

          ***** job concluded
 ******  
 *this file will describe the hspice of the given problem

 ****** job statistics summary tnom=  25.000 temp=  25.000 ******
  
  
 ******  Machine Information  ******
 CPU:
 model name	: Intel(R) Xeon(R) CPU E5-2699 v3 @ 2.30GHz
 cpu MHz	: 2299.998
  
 OS:
 Linux version 3.10.0-693.2.2.el7.x86_64 (builder@kbuilder.dev.centos.org) (gcc version 4.8.5 20150623 (Red Hat 4.8.5-16) (GCC) ) #1 SMP Tue Sep 12 22:26:13 UTC 2017


  ******  HSPICE Threads Information  ******

  Command Line Threads Count :     1
  Available CPU Count        :     8
  Actual Threads Count       :     1


  ******  Circuit Statistics  ******
  # nodes       =      12 # elements   =      21
  # resistors   =      10 # capacitors =      10 # inductors   =       0
  # mutual_inds =       0 # vccs       =       0 # vcvs        =       0
  # cccs        =       0 # ccvs       =       0 # volt_srcs   =       1
  # curr_srcs   =       0 # diodes     =       0 # bjts        =       0
  # jfets       =       0 # mosfets    =       0 # U elements  =       0
  # T elements  =       0 # W elements =       0 # B elements  =       0
  # S elements  =       0 # P elements =       0 # va device   =       0
  # vector_srcs =       0 # N elements =       0


  ******  Runtime Statistics (seconds)  ******

  analysis           time    # points   tot. iter  conv.iter
  op point           0.02           1           1
  transient          0.00       10001         122          61 rev=         2
  readin             0.01
  errchk             0.00
  setup              0.00
  output             0.00


           peak memory used        255.13 megabytes
           total cpu time            0.11 seconds
           total elapsed time        0.19 seconds
           job started at     23:24:13 02/10/2019
           job ended   at     23:24:13 02/10/2019


 lic: Release hspice token(s) 
 lic: total license checkout elapse time:        0.13(s)
