 ****** HSPICE -- L-2016.06-SP2-2 linux64 (Jan 24 2017) ******                  
  Copyright (c) 1986 - 2019 by Synopsys, Inc. All Rights Reserved.              
  This software and the associated documentation are proprietary
  to Synopsys, Inc. This software may only be used in accordance
  with the terms and conditions of a written license agreement with
  Synopsys, Inc. All other use, reproduction, or distribution of
  this software is strictly prohibited.
  Input File: RC.sp                                                             
  Command line options: /Linux/sw/request/synopsys/hspice_vL-2016.06-SP2-2/hspice/linux64/hspice -i RC.sp -o RC
 lic:  
 lic: FLEXlm: v11.2.1 
 lic: USER:   vprabhu              HOSTNAME: lcs-vc-linux-01 
 lic: HOSTID: 005056bc7b03         PID:      12241 
 lic: Using FLEXlm license file: 
 lic: 27006@lcs-vc-license2.ad.syr.edu 
 lic: Checkout 1 hspice 
 lic: License/Maintenance for hspice will expire on 17-mar-2019/2017.12 
 lic: 1(in_use)/75(total) FLOATING license(s) on SERVER 27006@lcs-vc-license2.ad.syr.edu 
 lic:   
  **info** (RC.sp:5) DC voltage reset to initial transient source value in source 0:vsource. new dc=0.0000D+00
  
      
 *****************************************************************
 ******  option summary
 ******
 runlvl  = 3         bypass  = 2.0000    
 **info** dc convergence successful at Newton-Raphson method 
1****** HSPICE -- L-2016.06-SP2-2 linux64 (Jan 24 2017) ******                  
 ******  
 * a simple rc circuit: rcexample.sp * note that the first line is always ignored

 ****** operating point information tnom=  25.000 temp=  25.000 ******
 ****** operating point status is voltage   simulation time is     0.     
    node    =voltage      node    =voltage

 +0:vo      =   0.      0:vs      =   0.     

 ******
 * a simple rc circuit: rcexample.sp * note that the first line is always ignored

 ****** transient analysis tnom=  25.000 temp=  25.000 ******
x

 time         voltage    voltage   
             vs         vo         
    0.          0.         0.      
   10.00000u    0.         0.      
   20.00000u    0.         0.      
   30.00000u    0.         0.      
   40.00000u    0.         0.      
   50.00000u    0.         0.      
   60.00000u    0.         0.      
   70.00000u    0.         0.      
   80.00000u    0.         0.      
   90.00000u    0.         0.      
  100.00000u    0.         0.      
  110.00000u    0.         0.      
  120.00000u    0.         0.      
  130.00000u    0.         0.      
  140.00000u    0.         0.      
  150.00000u    0.         0.      
  160.00000u    0.         0.      
  170.00000u    0.         0.      
  180.00000u    0.         0.      
  190.00000u    0.         0.      
  200.00000u    0.         0.      
  210.00000u    0.         0.      
  220.00000u    0.         0.      
  230.00000u    0.         0.      
  240.00000u    0.         0.      
  250.00000u    0.         0.      
  260.00000u    0.         0.      
  270.00000u    0.         0.      
  280.00000u    0.         0.      
  290.00000u    0.         0.      
  300.00000u    0.         0.      
  310.00000u    0.         0.      
  320.00000u    0.         0.      
  330.00000u    0.         0.      
  340.00000u    0.         0.      
  350.00000u    0.         0.      
  360.00000u    0.         0.      
  370.00000u    0.         0.      
  380.00000u    0.         0.      
  390.00000u    0.         0.      
  400.00000u    0.         0.      
  410.00000u    0.         0.      
  420.00000u    0.         0.      
  430.00000u    0.         0.      
  440.00000u    0.         0.      
  450.00000u    0.         0.      
  460.00000u    0.         0.      
  470.00000u    0.         0.      
  480.00000u    0.         0.      
  490.00000u    0.         0.      
  500.00000u    0.         0.      
  510.00000u    0.         0.      
  520.00000u    0.         0.      
  530.00000u    0.         0.      
  540.00000u    0.         0.      
  550.00000u    0.         0.      
  560.00000u    0.         0.      
  570.00000u    0.         0.      
  580.00000u    0.         0.      
  590.00000u    0.         0.      
  600.00000u    0.         0.      
  610.00000u    0.         0.      
  620.00000u    0.         0.      
  630.00000u    0.         0.      
  640.00000u    0.         0.      
  650.00000u    0.         0.      
  660.00000u    0.         0.      
  670.00000u    0.         0.      
  680.00000u    0.         0.      
  690.00000u    0.         0.      
  700.00000u    0.         0.      
  710.00000u    0.         0.      
  720.00000u    0.         0.      
  730.00000u    0.         0.      
  740.00000u    0.         0.      
  750.00000u    0.         0.      
  760.00000u    0.         0.      
  770.00000u    0.         0.      
  780.00000u    0.         0.      
  790.00000u    0.         0.      
  800.00000u    0.         0.      
  810.00000u    0.         0.      
  820.00000u    0.         0.      
  830.00000u    0.         0.      
  840.00000u    0.         0.      
  850.00000u    0.         0.      
  860.00000u    0.         0.      
  870.00000u    0.         0.      
  880.00000u    0.         0.      
  890.00000u    0.         0.      
  900.00000u    0.         0.      
  910.00000u    0.         0.      
  920.00000u    0.         0.      
  930.00000u    0.         0.      
  940.00000u    0.         0.      
  950.00000u    0.         0.      
  960.00000u    0.         0.      
  970.00000u    0.         0.      
  980.00000u    0.         0.      
  990.00000u    0.         0.      
    1.00000m    0.         0.      
    1.01000m    0.         0.      
    1.02000m    0.         0.      
    1.03000m    0.         0.      
    1.04000m    0.         0.      
    1.05000m    0.         0.      
    1.06000m    0.         0.      
    1.07000m    0.         0.      
    1.08000m    0.         0.      
    1.09000m    0.         0.      
    1.10000m    0.         0.      
    1.11000m    0.         0.      
    1.12000m    0.         0.      
    1.13000m    0.         0.      
    1.14000m    0.         0.      
    1.15000m    0.         0.      
    1.16000m    0.         0.      
    1.17000m    0.         0.      
    1.18000m    0.         0.      
    1.19000m    0.         0.      
    1.20000m    0.         0.      
    1.21000m    0.         0.      
    1.22000m    0.         0.      
    1.23000m    0.         0.      
    1.24000m    0.         0.      
    1.25000m    0.         0.      
    1.26000m    0.         0.      
    1.27000m    0.         0.      
    1.28000m    0.         0.      
    1.29000m    0.         0.      
    1.30000m    0.         0.      
    1.31000m    0.         0.      
    1.32000m    0.         0.      
    1.33000m    0.         0.      
    1.34000m    0.         0.      
    1.35000m    0.         0.      
    1.36000m    0.         0.      
    1.37000m    0.         0.      
    1.38000m    0.         0.      
    1.39000m    0.         0.      
    1.40000m    0.         0.      
    1.41000m    0.         0.      
    1.42000m    0.         0.      
    1.43000m    0.         0.      
    1.44000m    0.         0.      
    1.45000m    0.         0.      
    1.46000m    0.         0.      
    1.47000m    0.         0.      
    1.48000m    0.         0.      
    1.49000m    0.         0.      
    1.50000m    0.         0.      
    1.51000m    0.         0.      
    1.52000m    0.         0.      
    1.53000m    0.         0.      
    1.54000m    0.         0.      
    1.55000m    0.         0.      
    1.56000m    0.         0.      
    1.57000m    0.         0.      
    1.58000m    0.         0.      
    1.59000m    0.         0.      
    1.60000m    0.         0.      
    1.61000m    0.         0.      
    1.62000m    0.         0.      
    1.63000m    0.         0.      
    1.64000m    0.         0.      
    1.65000m    0.         0.      
    1.66000m    0.         0.      
    1.67000m    0.         0.      
    1.68000m    0.         0.      
    1.69000m    0.         0.      
    1.70000m    0.         0.      
    1.71000m    0.         0.      
    1.72000m    0.         0.      
    1.73000m    0.         0.      
    1.74000m    0.         0.      
    1.75000m    0.         0.      
    1.76000m    0.         0.      
    1.77000m    0.         0.      
    1.78000m    0.         0.      
    1.79000m    0.         0.      
    1.80000m    0.         0.      
    1.81000m    0.         0.      
    1.82000m    0.         0.      
    1.83000m    0.         0.      
    1.84000m    0.         0.      
    1.85000m    0.         0.      
    1.86000m    0.         0.      
    1.87000m    0.         0.      
    1.88000m    0.         0.      
    1.89000m    0.         0.      
    1.90000m    0.         0.      
    1.91000m    0.         0.      
    1.92000m    0.         0.      
    1.93000m    0.         0.      
    1.94000m    0.         0.      
    1.95000m    0.         0.      
    1.96000m    0.         0.      
    1.97000m    0.         0.      
    1.98000m    0.         0.      
    1.99000m    0.         0.      
    2.00000m    0.         0.      
    2.01000m    0.         0.      
    2.02000m    0.         0.      
    2.03000m    0.         0.      
    2.04000m    0.         0.      
    2.05000m    0.         0.      
    2.06000m    0.         0.      
    2.07000m    0.         0.      
    2.08000m    0.         0.      
    2.09000m    0.         0.      
    2.10000m    0.         0.      
    2.11000m    0.         0.      
    2.12000m    0.         0.      
    2.13000m    0.         0.      
    2.14000m    0.         0.      
    2.15000m    0.         0.      
    2.16000m    0.         0.      
    2.17000m    0.         0.      
    2.18000m    0.         0.      
    2.19000m    0.         0.      
    2.20000m    0.         0.      
    2.21000m    0.         0.      
    2.22000m    0.         0.      
    2.23000m    0.         0.      
    2.24000m    0.         0.      
    2.25000m    0.         0.      
    2.26000m    0.         0.      
    2.27000m    0.         0.      
    2.28000m    0.         0.      
    2.29000m    0.         0.      
    2.30000m    0.         0.      
    2.31000m    0.         0.      
    2.32000m    0.         0.      
    2.33000m    0.         0.      
    2.34000m    0.         0.      
    2.35000m    0.         0.      
    2.36000m    0.         0.      
    2.37000m    0.         0.      
    2.38000m    0.         0.      
    2.39000m    0.         0.      
    2.40000m    0.         0.      
    2.41000m    0.         0.      
    2.42000m    0.         0.      
    2.43000m    0.         0.      
    2.44000m    0.         0.      
    2.45000m    0.         0.      
    2.46000m    0.         0.      
    2.47000m    0.         0.      
    2.48000m    0.         0.      
    2.49000m    0.         0.      
    2.50000m    0.         0.      
    2.51000m    0.         0.      
    2.52000m    0.         0.      
    2.53000m    0.         0.      
    2.54000m    0.         0.      
    2.55000m    0.         0.      
    2.56000m    0.         0.      
    2.57000m    0.         0.      
    2.58000m    0.         0.      
    2.59000m    0.         0.      
    2.60000m    0.         0.      
    2.61000m    0.         0.      
    2.62000m    0.         0.      
    2.63000m    0.         0.      
    2.64000m    0.         0.      
    2.65000m    0.         0.      
    2.66000m    0.         0.      
    2.67000m    0.         0.      
    2.68000m    0.         0.      
    2.69000m    0.         0.      
    2.70000m    0.         0.      
    2.71000m    0.         0.      
    2.72000m    0.         0.      
    2.73000m    0.         0.      
    2.74000m    0.         0.      
    2.75000m    0.         0.      
    2.76000m    0.         0.      
    2.77000m    0.         0.      
    2.78000m    0.         0.      
    2.79000m    0.         0.      
    2.80000m    0.         0.      
    2.81000m    0.         0.      
    2.82000m    0.         0.      
    2.83000m    0.         0.      
    2.84000m    0.         0.      
    2.85000m    0.         0.      
    2.86000m    0.         0.      
    2.87000m    0.         0.      
    2.88000m    0.         0.      
    2.89000m    0.         0.      
    2.90000m    0.         0.      
    2.91000m    0.         0.      
    2.92000m    0.         0.      
    2.93000m    0.         0.      
    2.94000m    0.         0.      
    2.95000m    0.         0.      
    2.96000m    0.         0.      
    2.97000m    0.         0.      
    2.98000m    0.         0.      
    2.99000m    0.         0.      
    3.00000m    0.         0.      
    3.01000m    0.         0.      
    3.02000m    0.         0.      
    3.03000m    0.         0.      
    3.04000m    0.         0.      
    3.05000m    0.         0.      
    3.06000m    0.         0.      
    3.07000m    0.         0.      
    3.08000m    0.         0.      
    3.09000m    0.         0.      
    3.10000m    0.         0.      
    3.11000m    0.         0.      
    3.12000m    0.         0.      
    3.13000m    0.         0.      
    3.14000m    0.         0.      
    3.15000m    0.         0.      
    3.16000m    0.         0.      
    3.17000m    0.         0.      
    3.18000m    0.         0.      
    3.19000m    0.         0.      
    3.20000m    0.         0.      
    3.21000m    0.         0.      
    3.22000m    0.         0.      
    3.23000m    0.         0.      
    3.24000m    0.         0.      
    3.25000m    0.         0.      
    3.26000m    0.         0.      
    3.27000m    0.         0.      
    3.28000m    0.         0.      
    3.29000m    0.         0.      
    3.30000m    0.         0.      
    3.31000m    0.         0.      
    3.32000m    0.         0.      
    3.33000m    0.         0.      
    3.34000m    0.         0.      
    3.35000m    0.         0.      
    3.36000m    0.         0.      
    3.37000m    0.         0.      
    3.38000m    0.         0.      
    3.39000m    0.         0.      
    3.40000m    0.         0.      
    3.41000m    0.         0.      
    3.42000m    0.         0.      
    3.43000m    0.         0.      
    3.44000m    0.         0.      
    3.45000m    0.         0.      
    3.46000m    0.         0.      
    3.47000m    0.         0.      
    3.48000m    0.         0.      
    3.49000m    0.         0.      
    3.50000m    0.         0.      
    3.51000m    0.         0.      
    3.52000m    0.         0.      
    3.53000m    0.         0.      
    3.54000m    0.         0.      
    3.55000m    0.         0.      
    3.56000m    0.         0.      
    3.57000m    0.         0.      
    3.58000m    0.         0.      
    3.59000m    0.         0.      
    3.60000m    0.         0.      
    3.61000m    0.         0.      
    3.62000m    0.         0.      
    3.63000m    0.         0.      
    3.64000m    0.         0.      
    3.65000m    0.         0.      
    3.66000m    0.         0.      
    3.67000m    0.         0.      
    3.68000m    0.         0.      
    3.69000m    0.         0.      
    3.70000m    0.         0.      
    3.71000m    0.         0.      
    3.72000m    0.         0.      
    3.73000m    0.         0.      
    3.74000m    0.         0.      
    3.75000m    0.         0.      
    3.76000m    0.         0.      
    3.77000m    0.         0.      
    3.78000m    0.         0.      
    3.79000m    0.         0.      
    3.80000m    0.         0.      
    3.81000m    0.         0.      
    3.82000m    0.         0.      
    3.83000m    0.         0.      
    3.84000m    0.         0.      
    3.85000m    0.         0.      
    3.86000m    0.         0.      
    3.87000m    0.         0.      
    3.88000m    0.         0.      
    3.89000m    0.         0.      
    3.90000m    0.         0.      
    3.91000m    0.         0.      
    3.92000m    0.         0.      
    3.93000m    0.         0.      
    3.94000m    0.         0.      
    3.95000m    0.         0.      
    3.96000m    0.         0.      
    3.97000m    0.         0.      
    3.98000m    0.         0.      
    3.99000m    0.         0.      
    4.00000m    0.         0.      
    4.01000m    0.         0.      
    4.02000m    0.         0.      
    4.03000m    0.         0.      
    4.04000m    0.         0.      
    4.05000m    0.         0.      
    4.06000m    0.         0.      
    4.07000m    0.         0.      
    4.08000m    0.         0.      
    4.09000m    0.         0.      
    4.10000m    0.         0.      
    4.11000m    0.         0.      
    4.12000m    0.         0.      
    4.13000m    0.         0.      
    4.14000m    0.         0.      
    4.15000m    0.         0.      
    4.16000m    0.         0.      
    4.17000m    0.         0.      
    4.18000m    0.         0.      
    4.19000m    0.         0.      
    4.20000m    0.         0.      
    4.21000m    0.         0.      
    4.22000m    0.         0.      
    4.23000m    0.         0.      
    4.24000m    0.         0.      
    4.25000m    0.         0.      
    4.26000m    0.         0.      
    4.27000m    0.         0.      
    4.28000m    0.         0.      
    4.29000m    0.         0.      
    4.30000m    0.         0.      
    4.31000m    0.         0.      
    4.32000m    0.         0.      
    4.33000m    0.         0.      
    4.34000m    0.         0.      
    4.35000m    0.         0.      
    4.36000m    0.         0.      
    4.37000m    0.         0.      
    4.38000m    0.         0.      
    4.39000m    0.         0.      
    4.40000m    0.         0.      
    4.41000m    0.         0.      
    4.42000m    0.         0.      
    4.43000m    0.         0.      
    4.44000m    0.         0.      
    4.45000m    0.         0.      
    4.46000m    0.         0.      
    4.47000m    0.         0.      
    4.48000m    0.         0.      
    4.49000m    0.         0.      
    4.50000m    0.         0.      
    4.51000m    0.         0.      
    4.52000m    0.         0.      
    4.53000m    0.         0.      
    4.54000m    0.         0.      
    4.55000m    0.         0.      
    4.56000m    0.         0.      
    4.57000m    0.         0.      
    4.58000m    0.         0.      
    4.59000m    0.         0.      
    4.60000m    0.         0.      
    4.61000m    0.         0.      
    4.62000m    0.         0.      
    4.63000m    0.         0.      
    4.64000m    0.         0.      
    4.65000m    0.         0.      
    4.66000m    0.         0.      
    4.67000m    0.         0.      
    4.68000m    0.         0.      
    4.69000m    0.         0.      
    4.70000m    0.         0.      
    4.71000m    0.         0.      
    4.72000m    0.         0.      
    4.73000m    0.         0.      
    4.74000m    0.         0.      
    4.75000m    0.         0.      
    4.76000m    0.         0.      
    4.77000m    0.         0.      
    4.78000m    0.         0.      
    4.79000m    0.         0.      
    4.80000m    0.         0.      
    4.81000m    0.         0.      
    4.82000m    0.         0.      
    4.83000m    0.         0.      
    4.84000m    0.         0.      
    4.85000m    0.         0.      
    4.86000m    0.         0.      
    4.87000m    0.         0.      
    4.88000m    0.         0.      
    4.89000m    0.         0.      
    4.90000m    0.         0.      
    4.91000m    0.         0.      
    4.92000m    0.         0.      
    4.93000m    0.         0.      
    4.94000m    0.         0.      
    4.95000m    0.         0.      
    4.96000m    0.         0.      
    4.97000m    0.         0.      
    4.98000m    0.         0.      
    4.99000m    0.         0.      
    5.00000m    0.         0.      
    5.01000m    5.0000    25.4635m 
    5.02000m    5.0000    74.9241m 
    5.03000m    5.0000   123.6884m 
    5.04000m    5.0000   172.3210m 
    5.05000m    5.0000   219.5619m 
    5.06000m    5.0000   266.0671m 
    5.07000m    5.0000   312.5723m 
    5.08000m    5.0000   359.0775m 
    5.09000m    5.0000   405.5826m 
    5.10000m    5.0000   452.0878m 
    5.11000m    5.0000   498.5930m 
    5.12000m    5.0000   540.4979m 
    5.13000m    5.0000   580.9379m 
    5.14000m    5.0000   621.3778m 
    5.15000m    5.0000   661.8178m 
    5.16000m    5.0000   702.2577m 
    5.17000m    5.0000   742.6977m 
    5.18000m    5.0000   783.1377m 
    5.19000m    5.0000   823.5776m 
    5.20000m    5.0000   864.0176m 
    5.21000m    5.0000   904.4575m 
    5.22000m    5.0000   944.8975m 
    5.23000m    5.0000   985.3374m 
    5.24000m    5.0000     1.0258  
    5.25000m    5.0000     1.0662  
    5.26000m    5.0000     1.1067  
    5.27000m    5.0000     1.1471  
    5.28000m    5.0000     1.1875  
    5.29000m    5.0000     1.2280  
    5.30000m    5.0000     1.2684  
    5.31000m    5.0000     1.3089  
    5.32000m    5.0000     1.3493  
    5.33000m    5.0000     1.3897  
    5.34000m    5.0000     1.4233  
    5.35000m    5.0000     1.4538  
    5.36000m    5.0000     1.4844  
    5.37000m    5.0000     1.5149  
    5.38000m    5.0000     1.5454  
    5.39000m    5.0000     1.5760  
    5.40000m    5.0000     1.6065  
    5.41000m    5.0000     1.6370  
    5.42000m    5.0000     1.6675  
    5.43000m    5.0000     1.6981  
    5.44000m    5.0000     1.7286  
    5.45000m    5.0000     1.7591  
    5.46000m    5.0000     1.7896  
    5.47000m    5.0000     1.8202  
    5.48000m    5.0000     1.8507  
    5.49000m    5.0000     1.8812  
    5.50000m    5.0000     1.9118  
    5.51000m    5.0000     1.9423  
    5.52000m    5.0000     1.9728  
    5.53000m    5.0000     2.0033  
    5.54000m    5.0000     2.0339  
    5.55000m    5.0000     2.0644  
    5.56000m    5.0000     2.0949  
    5.57000m    5.0000     2.1255  
    5.58000m    5.0000     2.1560  
    5.59000m    5.0000     2.1865  
    5.60000m    5.0000     2.2170  
    5.61000m    5.0000     2.2476  
    5.62000m    5.0000     2.2781  
    5.63000m    5.0000     2.3086  
    5.64000m    5.0000     2.3391  
    5.65000m    5.0000     2.3697  
    5.66000m    5.0000     2.4002  
    5.67000m    5.0000     2.4307  
    5.68000m    5.0000     2.4613  
    5.69000m    5.0000     2.4918  
    5.70000m    5.0000     2.5133  
    5.71000m    5.0000     2.5347  
    5.72000m    5.0000     2.5561  
    5.73000m    5.0000     2.5775  
    5.74000m    5.0000     2.5989  
    5.75000m    5.0000     2.6202  
    5.76000m    5.0000     2.6416  
    5.77000m    5.0000     2.6630  
    5.78000m    5.0000     2.6844  
    5.79000m    5.0000     2.7058  
    5.80000m    5.0000     2.7272  
    5.81000m    5.0000     2.7485  
    5.82000m    5.0000     2.7699  
    5.83000m    5.0000     2.7913  
    5.84000m    5.0000     2.8127  
    5.85000m    5.0000     2.8341  
    5.86000m    5.0000     2.8555  
    5.87000m    5.0000     2.8768  
    5.88000m    5.0000     2.8982  
    5.89000m    5.0000     2.9196  
    5.90000m    5.0000     2.9410  
    5.91000m    5.0000     2.9624  
    5.92000m    5.0000     2.9838  
    5.93000m    5.0000     3.0052  
    5.94000m    5.0000     3.0265  
    5.95000m    5.0000     3.0479  
    5.96000m    5.0000     3.0693  
    5.97000m    5.0000     3.0907  
    5.98000m    5.0000     3.1121  
    5.99000m    5.0000     3.1335  
    6.00000m    5.0000     3.1548  
    6.01000m    5.0000     3.1762  
    6.02000m    5.0000     3.1976  
    6.03000m    5.0000     3.2190  
    6.04000m    5.0000     3.2375  
    6.05000m    5.0000     3.2523  
    6.06000m    5.0000     3.2672  
    6.07000m    5.0000     3.2821  
    6.08000m    5.0000     3.2969  
    6.09000m    5.0000     3.3118  
    6.10000m    5.0000     3.3266  
    6.11000m    5.0000     3.3415  
    6.12000m    5.0000     3.3563  
    6.13000m    5.0000     3.3712  
    6.14000m    5.0000     3.3861  
    6.15000m    5.0000     3.4009  
    6.16000m    5.0000     3.4158  
    6.17000m    5.0000     3.4306  
    6.18000m    5.0000     3.4455  
    6.19000m    5.0000     3.4604  
    6.20000m    5.0000     3.4752  
    6.21000m    5.0000     3.4901  
    6.22000m    5.0000     3.5049  
    6.23000m    5.0000     3.5198  
    6.24000m    5.0000     3.5346  
    6.25000m    5.0000     3.5495  
    6.26000m    5.0000     3.5644  
    6.27000m    5.0000     3.5792  
    6.28000m    5.0000     3.5941  
    6.29000m    5.0000     3.6089  
    6.30000m    5.0000     3.6238  
    6.31000m    5.0000     3.6386  
    6.32000m    5.0000     3.6535  
    6.33000m    5.0000     3.6684  
    6.34000m    5.0000     3.6832  
    6.35000m    5.0000     3.6981  
    6.36000m    5.0000     3.7129  
    6.37000m    5.0000     3.7278  
    6.38000m    5.0000     3.7426  
    6.39000m    5.0000     3.7575  
    6.40000m    5.0000     3.7724  
    6.41000m    5.0000     3.7872  
    6.42000m    5.0000     3.8006  
    6.43000m    5.0000     3.8107  
    6.44000m    5.0000     3.8207  
    6.45000m    5.0000     3.8308  
    6.46000m    5.0000     3.8408  
    6.47000m    5.0000     3.8509  
    6.48000m    5.0000     3.8609  
    6.49000m    5.0000     3.8709  
    6.50000m    5.0000     3.8810  
    6.51000m    5.0000     3.8910  
    6.52000m    5.0000     3.9011  
    6.53000m    5.0000     3.9111  
    6.54000m    5.0000     3.9212  
    6.55000m    5.0000     3.9312  
    6.56000m    5.0000     3.9413  
    6.57000m    5.0000     3.9513  
    6.58000m    5.0000     3.9614  
    6.59000m    5.0000     3.9714  
    6.60000m    5.0000     3.9815  
    6.61000m    5.0000     3.9915  
    6.62000m    5.0000     4.0016  
    6.63000m    5.0000     4.0116  
    6.64000m    5.0000     4.0217  
    6.65000m    5.0000     4.0317  
    6.66000m    5.0000     4.0418  
    6.67000m    5.0000     4.0518  
    6.68000m    5.0000     4.0619  
    6.69000m    5.0000     4.0719  
    6.70000m    5.0000     4.0820  
    6.71000m    5.0000     4.0920  
    6.72000m    5.0000     4.1021  
    6.73000m    5.0000     4.1121  
    6.74000m    5.0000     4.1221  
    6.75000m    5.0000     4.1322  
    6.76000m    5.0000     4.1422  
    6.77000m    5.0000     4.1523  
    6.78000m    5.0000     4.1623  
    6.79000m    5.0000     4.1724  
    6.80000m    5.0000     4.1824  
    6.81000m    5.0000     4.1925  
    6.82000m    5.0000     4.1992  
    6.83000m    5.0000     4.2058  
    6.84000m    5.0000     4.2124  
    6.85000m    5.0000     4.2190  
    6.86000m    5.0000     4.2256  
    6.87000m    5.0000     4.2322  
    6.88000m    5.0000     4.2388  
    6.89000m    5.0000     4.2454  
    6.90000m    5.0000     4.2520  
    6.91000m    5.0000     4.2586  
    6.92000m    5.0000     4.2652  
    6.93000m    5.0000     4.2718  
    6.94000m    5.0000     4.2784  
    6.95000m    5.0000     4.2850  
    6.96000m    5.0000     4.2916  
    6.97000m    5.0000     4.2982  
    6.98000m    5.0000     4.3048  
    6.99000m    5.0000     4.3114  
    7.00000m    5.0000     4.3180  
    7.01000m    5.0000     4.3246  
    7.02000m    5.0000     4.3312  
    7.03000m    5.0000     4.3378  
    7.04000m    5.0000     4.3444  
    7.05000m    5.0000     4.3510  
    7.06000m    5.0000     4.3576  
    7.07000m    5.0000     4.3642  
    7.08000m    5.0000     4.3708  
    7.09000m    5.0000     4.3774  
    7.10000m    5.0000     4.3840  
    7.11000m    5.0000     4.3906  
    7.12000m    5.0000     4.3972  
    7.13000m    5.0000     4.4038  
    7.14000m    5.0000     4.4104  
    7.15000m    5.0000     4.4170  
    7.16000m    5.0000     4.4236  
    7.17000m    5.0000     4.4302  
    7.18000m    5.0000     4.4368  
    7.19000m    5.0000     4.4433  
    7.20000m    5.0000     4.4499  
    7.21000m    5.0000     4.4565  
    7.22000m    5.0000     4.4631  
    7.23000m    5.0000     4.4697  
    7.24000m    5.0000     4.4763  
    7.25000m    5.0000     4.4829  
    7.26000m    5.0000     4.4888  
    7.27000m    5.0000     4.4929  
    7.28000m    5.0000     4.4970  
    7.29000m    5.0000     4.5011  
    7.30000m    5.0000     4.5053  
    7.31000m    5.0000     4.5094  
    7.32000m    5.0000     4.5135  
    7.33000m    5.0000     4.5176  
    7.34000m    5.0000     4.5218  
    7.35000m    5.0000     4.5259  
    7.36000m    5.0000     4.5300  
    7.37000m    5.0000     4.5341  
    7.38000m    5.0000     4.5383  
    7.39000m    5.0000     4.5424  
    7.40000m    5.0000     4.5465  
    7.41000m    5.0000     4.5507  
    7.42000m    5.0000     4.5548  
    7.43000m    5.0000     4.5589  
    7.44000m    5.0000     4.5630  
    7.45000m    5.0000     4.5672  
    7.46000m    5.0000     4.5713  
    7.47000m    5.0000     4.5754  
    7.48000m    5.0000     4.5795  
    7.49000m    5.0000     4.5837  
    7.50000m    5.0000     4.5878  
    7.51000m    5.0000     4.5919  
    7.52000m    5.0000     4.5960  
    7.53000m    5.0000     4.6002  
    7.54000m    5.0000     4.6043  
    7.55000m    5.0000     4.6084  
    7.56000m    5.0000     4.6125  
    7.57000m    5.0000     4.6167  
    7.58000m    5.0000     4.6208  
    7.59000m    5.0000     4.6249  
    7.60000m    5.0000     4.6290  
    7.61000m    5.0000     4.6332  
    7.62000m    5.0000     4.6373  
    7.63000m    5.0000     4.6414  
    7.64000m    5.0000     4.6456  
    7.65000m    5.0000     4.6497  
    7.66000m    5.0000     4.6538  
    7.67000m    5.0000     4.6579  
    7.68000m    5.0000     4.6621  
    7.69000m    5.0000     4.6662  
    7.70000m    5.0000     4.6703  
    7.71000m    5.0000     4.6744  
    7.72000m    5.0000     4.6786  
    7.73000m    5.0000     4.6827  
    7.74000m    5.0000     4.6868  
    7.75000m    5.0000     4.6895  
    7.76000m    5.0000     4.6919  
    7.77000m    5.0000     4.6944  
    7.78000m    5.0000     4.6968  
    7.79000m    5.0000     4.6993  
    7.80000m    5.0000     4.7017  
    7.81000m    5.0000     4.7042  
    7.82000m    5.0000     4.7066  
    7.83000m    5.0000     4.7091  
    7.84000m    5.0000     4.7116  
    7.85000m    5.0000     4.7140  
    7.86000m    5.0000     4.7165  
    7.87000m    5.0000     4.7189  
    7.88000m    5.0000     4.7214  
    7.89000m    5.0000     4.7238  
    7.90000m    5.0000     4.7263  
    7.91000m    5.0000     4.7287  
    7.92000m    5.0000     4.7312  
    7.93000m    5.0000     4.7336  
    7.94000m    5.0000     4.7361  
    7.95000m    5.0000     4.7385  
    7.96000m    5.0000     4.7410  
    7.97000m    5.0000     4.7435  
    7.98000m    5.0000     4.7459  
    7.99000m    5.0000     4.7484  
    8.00000m    5.0000     4.7508  
    8.01000m    5.0000     4.7533  
    8.02000m    5.0000     4.7557  
    8.03000m    5.0000     4.7582  
    8.04000m    5.0000     4.7606  
    8.05000m    5.0000     4.7631  
    8.06000m    5.0000     4.7655  
    8.07000m    5.0000     4.7680  
    8.08000m    5.0000     4.7704  
    8.09000m    5.0000     4.7729  
    8.10000m    5.0000     4.7754  
    8.11000m    5.0000     4.7778  
    8.12000m    5.0000     4.7803  
    8.13000m    5.0000     4.7827  
    8.14000m    5.0000     4.7852  
    8.15000m    5.0000     4.7876  
    8.16000m    5.0000     4.7901  
    8.17000m    5.0000     4.7925  
    8.18000m    5.0000     4.7950  
    8.19000m    5.0000     4.7974  
    8.20000m    5.0000     4.7999  
    8.21000m    5.0000     4.8023  
    8.22000m    5.0000     4.8048  
    8.23000m    5.0000     4.8073  
    8.24000m    5.0000     4.8097  
    8.25000m    5.0000     4.8122  
    8.26000m    5.0000     4.8146  
    8.27000m    5.0000     4.8171  
    8.28000m    5.0000     4.8195  
    8.29000m    5.0000     4.8220  
    8.30000m    5.0000     4.8233  
    8.31000m    5.0000     4.8247  
    8.32000m    5.0000     4.8260  
    8.33000m    5.0000     4.8274  
    8.34000m    5.0000     4.8288  
    8.35000m    5.0000     4.8301  
    8.36000m    5.0000     4.8315  
    8.37000m    5.0000     4.8329  
    8.38000m    5.0000     4.8342  
    8.39000m    5.0000     4.8356  
    8.40000m    5.0000     4.8370  
    8.41000m    5.0000     4.8383  
    8.42000m    5.0000     4.8397  
    8.43000m    5.0000     4.8410  
    8.44000m    5.0000     4.8424  
    8.45000m    5.0000     4.8438  
    8.46000m    5.0000     4.8451  
    8.47000m    5.0000     4.8465  
    8.48000m    5.0000     4.8479  
    8.49000m    5.0000     4.8492  
    8.50000m    5.0000     4.8506  
    8.51000m    5.0000     4.8520  
    8.52000m    5.0000     4.8533  
    8.53000m    5.0000     4.8547  
    8.54000m    5.0000     4.8560  
    8.55000m    5.0000     4.8574  
    8.56000m    5.0000     4.8588  
    8.57000m    5.0000     4.8601  
    8.58000m    5.0000     4.8615  
    8.59000m    5.0000     4.8629  
    8.60000m    5.0000     4.8642  
    8.61000m    5.0000     4.8656  
    8.62000m    5.0000     4.8669  
    8.63000m    5.0000     4.8683  
    8.64000m    5.0000     4.8697  
    8.65000m    5.0000     4.8710  
    8.66000m    5.0000     4.8724  
    8.67000m    5.0000     4.8738  
    8.68000m    5.0000     4.8751  
    8.69000m    5.0000     4.8765  
    8.70000m    5.0000     4.8779  
    8.71000m    5.0000     4.8792  
    8.72000m    5.0000     4.8806  
    8.73000m    5.0000     4.8819  
    8.74000m    5.0000     4.8833  
    8.75000m    5.0000     4.8847  
    8.76000m    5.0000     4.8860  
    8.77000m    5.0000     4.8874  
    8.78000m    5.0000     4.8888  
    8.79000m    5.0000     4.8901  
    8.80000m    5.0000     4.8915  
    8.81000m    5.0000     4.8929  
    8.82000m    5.0000     4.8942  
    8.83000m    5.0000     4.8956  
    8.84000m    5.0000     4.8969  
    8.85000m    5.0000     4.8983  
    8.86000m    5.0000     4.8997  
    8.87000m    5.0000     4.9010  
    8.88000m    5.0000     4.9024  
    8.89000m    5.0000     4.9038  
    8.90000m    5.0000     4.9051  
    8.91000m    5.0000     4.9059  
    8.92000m    5.0000     4.9066  
    8.93000m    5.0000     4.9073  
    8.94000m    5.0000     4.9080  
    8.95000m    5.0000     4.9087  
    8.96000m    5.0000     4.9094  
    8.97000m    5.0000     4.9101  
    8.98000m    5.0000     4.9108  
    8.99000m    5.0000     4.9115  
    9.00000m    5.0000     4.9122  
    9.01000m    5.0000     4.9129  
    9.02000m    5.0000     4.9136  
    9.03000m    5.0000     4.9143  
    9.04000m    5.0000     4.9150  
    9.05000m    5.0000     4.9157  
    9.06000m    5.0000     4.9164  
    9.07000m    5.0000     4.9171  
    9.08000m    5.0000     4.9178  
    9.09000m    5.0000     4.9185  
    9.10000m    5.0000     4.9192  
    9.11000m    5.0000     4.9199  
    9.12000m    5.0000     4.9206  
    9.13000m    5.0000     4.9213  
    9.14000m    5.0000     4.9220  
    9.15000m    5.0000     4.9227  
    9.16000m    5.0000     4.9234  
    9.17000m    5.0000     4.9241  
    9.18000m    5.0000     4.9248  
    9.19000m    5.0000     4.9255  
    9.20000m    5.0000     4.9262  
    9.21000m    5.0000     4.9269  
    9.22000m    5.0000     4.9276  
    9.23000m    5.0000     4.9283  
    9.24000m    5.0000     4.9290  
    9.25000m    5.0000     4.9297  
    9.26000m    5.0000     4.9304  
    9.27000m    5.0000     4.9311  
    9.28000m    5.0000     4.9318  
    9.29000m    5.0000     4.9325  
    9.30000m    5.0000     4.9332  
    9.31000m    5.0000     4.9339  
    9.32000m    5.0000     4.9346  
    9.33000m    5.0000     4.9353  
    9.34000m    5.0000     4.9360  
    9.35000m    5.0000     4.9367  
    9.36000m    5.0000     4.9374  
    9.37000m    5.0000     4.9381  
    9.38000m    5.0000     4.9388  
    9.39000m    5.0000     4.9395  
    9.40000m    5.0000     4.9402  
    9.41000m    5.0000     4.9409  
    9.42000m    5.0000     4.9416  
    9.43000m    5.0000     4.9423  
    9.44000m    5.0000     4.9430  
    9.45000m    5.0000     4.9437  
    9.46000m    5.0000     4.9444  
    9.47000m    5.0000     4.9451  
    9.48000m    5.0000     4.9458  
    9.49000m    5.0000     4.9465  
    9.50000m    5.0000     4.9472  
    9.51000m    5.0000     4.9479  
    9.52000m    5.0000     4.9486  
    9.53000m    5.0000     4.9493  
    9.54000m    5.0000     4.9500  
    9.55000m    5.0000     4.9507  
    9.56000m    5.0000     4.9514  
    9.57000m    5.0000     4.9521  
    9.58000m    5.0000     4.9528  
    9.59000m    5.0000     4.9535  
    9.60000m    5.0000     4.9542  
    9.61000m    5.0000     4.9548  
    9.62000m    5.0000     4.9552  
    9.63000m    5.0000     4.9556  
    9.64000m    5.0000     4.9560  
    9.65000m    5.0000     4.9563  
    9.66000m    5.0000     4.9567  
    9.67000m    5.0000     4.9571  
    9.68000m    5.0000     4.9575  
    9.69000m    5.0000     4.9578  
    9.70000m    5.0000     4.9582  
    9.71000m    5.0000     4.9586  
    9.72000m    5.0000     4.9590  
    9.73000m    5.0000     4.9594  
    9.74000m    5.0000     4.9597  
    9.75000m    5.0000     4.9601  
    9.76000m    5.0000     4.9605  
    9.77000m    5.0000     4.9609  
    9.78000m    5.0000     4.9613  
    9.79000m    5.0000     4.9616  
    9.80000m    5.0000     4.9620  
    9.81000m    5.0000     4.9624  
    9.82000m    5.0000     4.9628  
    9.83000m    5.0000     4.9631  
    9.84000m    5.0000     4.9635  
    9.85000m    5.0000     4.9639  
    9.86000m    5.0000     4.9643  
    9.87000m    5.0000     4.9647  
    9.88000m    5.0000     4.9650  
    9.89000m    5.0000     4.9654  
    9.90000m    5.0000     4.9658  
    9.91000m    5.0000     4.9662  
    9.92000m    5.0000     4.9666  
    9.93000m    5.0000     4.9669  
    9.94000m    5.0000     4.9673  
    9.95000m    5.0000     4.9677  
    9.96000m    5.0000     4.9681  
    9.97000m    5.0000     4.9684  
    9.98000m    5.0000     4.9688  
    9.99000m    5.0000     4.9692  
   10.00000m    5.0000     4.9696  
   10.01000m    2.5000     4.9543  
   10.02000m    2.5000     4.9300  
   10.03000m    2.5000     4.9059  
   10.04000m    2.5000     4.8820  
   10.05000m    2.5000     4.8582  
   10.06000m    2.5000     4.8354  
   10.07000m    2.5000     4.8128  
   10.08000m    2.5000     4.7903  
   10.09000m    2.5000     4.7678  
   10.10000m    2.5000     4.7452  
   10.11000m    2.5000     4.7227  
   10.12000m    2.5000     4.7002  
   10.13000m    2.5000     4.6776  
   10.14000m    2.5000     4.6551  
   10.15000m    2.5000     4.6360  
   10.16000m    2.5000     4.6171  
   10.17000m    2.5000     4.5983  
   10.18000m    2.5000     4.5794  
   10.19000m    2.5000     4.5605  
   10.20000m    2.5000     4.5417  
   10.21000m    2.5000     4.5228  
   10.22000m    2.5000     4.5040  
   10.23000m    2.5000     4.4851  
   10.24000m    2.5000     4.4663  
   10.25000m    2.5000     4.4474  
   10.26000m    2.5000     4.4286  
   10.27000m    2.5000     4.4097  
   10.28000m    2.5000     4.3908  
   10.29000m    2.5000     4.3720  
   10.30000m    2.5000     4.3531  
   10.31000m    2.5000     4.3343  
   10.32000m    2.5000     4.3154  
   10.33000m    2.5000     4.2966  
   10.34000m    2.5000     4.2777  
   10.35000m    2.5000     4.2589  
   10.36000m    2.5000     4.2400  
   10.37000m    2.5000     4.2211  
   10.38000m    2.5000     4.2023  
   10.39000m    2.5000     4.1834  
   10.40000m    2.5000     4.1646  
   10.41000m    2.5000     4.1457  
   10.42000m    2.5000     4.1269  
   10.43000m    2.5000     4.1109  
   10.44000m    2.5000     4.0975  
   10.45000m    2.5000     4.0842  
   10.46000m    2.5000     4.0708  
   10.47000m    2.5000     4.0575  
   10.48000m    2.5000     4.0441  
   10.49000m    2.5000     4.0308  
   10.50000m    2.5000     4.0174  
   10.51000m    2.5000     4.0041  
   10.52000m    2.5000     3.9908  
   10.53000m    2.5000     3.9774  
   10.54000m    2.5000     3.9641  
   10.55000m    2.5000     3.9507  
   10.56000m    2.5000     3.9374  
   10.57000m    2.5000     3.9240  
   10.58000m    2.5000     3.9107  
   10.59000m    2.5000     3.8973  
   10.60000m    2.5000     3.8840  
   10.61000m    2.5000     3.8707  
   10.62000m    2.5000     3.8573  
   10.63000m    2.5000     3.8440  
   10.64000m    2.5000     3.8306  
   10.65000m    2.5000     3.8173  
   10.66000m    2.5000     3.8039  
   10.67000m    2.5000     3.7906  
   10.68000m    2.5000     3.7772  
   10.69000m    2.5000     3.7639  
   10.70000m    2.5000     3.7506  
   10.71000m    2.5000     3.7372  
   10.72000m    2.5000     3.7239  
   10.73000m    2.5000     3.7105  
   10.74000m    2.5000     3.6972  
   10.75000m    2.5000     3.6838  
   10.76000m    2.5000     3.6705  
   10.77000m    2.5000     3.6572  
   10.78000m    2.5000     3.6438  
   10.79000m    2.5000     3.6305  
   10.80000m    2.5000     3.6171  
   10.81000m    2.5000     3.6038  
   10.82000m    2.5000     3.5904  
   10.83000m    2.5000     3.5771  
   10.84000m    2.5000     3.5637  
   10.85000m    2.5000     3.5506  
   10.86000m    2.5000     3.5420  
   10.87000m    2.5000     3.5333  
   10.88000m    2.5000     3.5247  
   10.89000m    2.5000     3.5160  
   10.90000m    2.5000     3.5073  
   10.91000m    2.5000     3.4987  
   10.92000m    2.5000     3.4900  
   10.93000m    2.5000     3.4814  
   10.94000m    2.5000     3.4727  
   10.95000m    2.5000     3.4640  
   10.96000m    2.5000     3.4554  
   10.97000m    2.5000     3.4467  
   10.98000m    2.5000     3.4381  
   10.99000m    2.5000     3.4294  
   11.00000m    2.5000     3.4208  
   11.01000m    2.5000     3.4121  
   11.02000m    2.5000     3.4034  
   11.03000m    2.5000     3.3948  
   11.04000m    2.5000     3.3861  
   11.05000m    2.5000     3.3775  
   11.06000m    2.5000     3.3688  
   11.07000m    2.5000     3.3601  
   11.08000m    2.5000     3.3515  
   11.09000m    2.5000     3.3428  
   11.10000m    2.5000     3.3342  
   11.11000m    2.5000     3.3255  
   11.12000m    2.5000     3.3168  
   11.13000m    2.5000     3.3082  
   11.14000m    2.5000     3.2995  
   11.15000m    2.5000     3.2909  
   11.16000m    2.5000     3.2822  
   11.17000m    2.5000     3.2735  
   11.18000m    2.5000     3.2649  
   11.19000m    2.5000     3.2562  
   11.20000m    2.5000     3.2476  
   11.21000m    2.5000     3.2389  
   11.22000m    2.5000     3.2303  
   11.23000m    2.5000     3.2216  
   11.24000m    2.5000     3.2129  
   11.25000m    2.5000     3.2043  
   11.26000m    2.5000     3.1956  
   11.27000m    2.5000     3.1870  
   11.28000m    2.5000     3.1792  
   11.29000m    2.5000     3.1737  
   11.30000m    2.5000     3.1681  
   11.31000m    2.5000     3.1626  
   11.32000m    2.5000     3.1571  
   11.33000m    2.5000     3.1516  
   11.34000m    2.5000     3.1461  
   11.35000m    2.5000     3.1405  
   11.36000m    2.5000     3.1350  
   11.37000m    2.5000     3.1295  
   11.38000m    2.5000     3.1240  
   11.39000m    2.5000     3.1185  
   11.40000m    2.5000     3.1129  
   11.41000m    2.5000     3.1074  
   11.42000m    2.5000     3.1019  
   11.43000m    2.5000     3.0964  
   11.44000m    2.5000     3.0909  
   11.45000m    2.5000     3.0853  
   11.46000m    2.5000     3.0798  
   11.47000m    2.5000     3.0743  
   11.48000m    2.5000     3.0688  
   11.49000m    2.5000     3.0633  
   11.50000m    2.5000     3.0577  
   11.51000m    2.5000     3.0522  
   11.52000m    2.5000     3.0467  
   11.53000m    2.5000     3.0412  
   11.54000m    2.5000     3.0357  
   11.55000m    2.5000     3.0301  
   11.56000m    2.5000     3.0246  
   11.57000m    2.5000     3.0191  
   11.58000m    2.5000     3.0136  
   11.59000m    2.5000     3.0081  
   11.60000m    2.5000     3.0025  
   11.61000m    2.5000     2.9970  
   11.62000m    2.5000     2.9915  
   11.63000m    2.5000     2.9860  
   11.64000m    2.5000     2.9805  
   11.65000m    2.5000     2.9749  
   11.66000m    2.5000     2.9694  
   11.67000m    2.5000     2.9639  
   11.68000m    2.5000     2.9584  
   11.69000m    2.5000     2.9529  
   11.70000m    2.5000     2.9473  
   11.71000m    2.5000     2.9418  
   11.72000m    2.5000     2.9363  
   11.73000m    2.5000     2.9308  
   11.74000m    2.5000     2.9253  
   11.75000m    2.5000     2.9211  
   11.76000m    2.5000     2.9177  
   11.77000m    2.5000     2.9143  
   11.78000m    2.5000     2.9109  
   11.79000m    2.5000     2.9076  
   11.80000m    2.5000     2.9042  
   11.81000m    2.5000     2.9008  
   11.82000m    2.5000     2.8974  
   11.83000m    2.5000     2.8940  
   11.84000m    2.5000     2.8906  
   11.85000m    2.5000     2.8872  
   11.86000m    2.5000     2.8838  
   11.87000m    2.5000     2.8805  
   11.88000m    2.5000     2.8771  
   11.89000m    2.5000     2.8737  
   11.90000m    2.5000     2.8703  
   11.91000m    2.5000     2.8669  
   11.92000m    2.5000     2.8635  
   11.93000m    2.5000     2.8601  
   11.94000m    2.5000     2.8568  
   11.95000m    2.5000     2.8534  
   11.96000m    2.5000     2.8500  
   11.97000m    2.5000     2.8466  
   11.98000m    2.5000     2.8432  
   11.99000m    2.5000     2.8398  
   12.00000m    2.5000     2.8364  
   12.01000m    2.5000     2.8330  
   12.02000m    2.5000     2.8297  
   12.03000m    2.5000     2.8263  
   12.04000m    2.5000     2.8229  
   12.05000m    2.5000     2.8195  
   12.06000m    2.5000     2.8161  
   12.07000m    2.5000     2.8127  
   12.08000m    2.5000     2.8093  
   12.09000m    2.5000     2.8059  
   12.10000m    2.5000     2.8026  
   12.11000m    2.5000     2.7992  
   12.12000m    2.5000     2.7958  
   12.13000m    2.5000     2.7924  
   12.14000m    2.5000     2.7890  
   12.15000m    2.5000     2.7856  
   12.16000m    2.5000     2.7822  
   12.17000m    2.5000     2.7789  
   12.18000m    2.5000     2.7755  
   12.19000m    2.5000     2.7721  
   12.20000m    2.5000     2.7687  
   12.21000m    2.5000     2.7653  
   12.22000m    2.5000     2.7619  
   12.23000m    2.5000     2.7585  
   12.24000m    2.5000     2.7551  
   12.25000m    2.5000     2.7527  
   12.26000m    2.5000     2.7508  
   12.27000m    2.5000     2.7488  
   12.28000m    2.5000     2.7468  
   12.29000m    2.5000     2.7448  
   12.30000m    2.5000     2.7429  
   12.31000m    2.5000     2.7409  
   12.32000m    2.5000     2.7389  
   12.33000m    2.5000     2.7369  
   12.34000m    2.5000     2.7350  
   12.35000m    2.5000     2.7330  
   12.36000m    2.5000     2.7310  
   12.37000m    2.5000     2.7290  
   12.38000m    2.5000     2.7271  
   12.39000m    2.5000     2.7251  
   12.40000m    2.5000     2.7231  
   12.41000m    2.5000     2.7211  
   12.42000m    2.5000     2.7192  
   12.43000m    2.5000     2.7172  
   12.44000m    2.5000     2.7152  
   12.45000m    2.5000     2.7132  
   12.46000m    2.5000     2.7113  
   12.47000m    2.5000     2.7093  
   12.48000m    2.5000     2.7073  
   12.49000m    2.5000     2.7053  
   12.50000m    2.5000     2.7034  
   12.51000m    2.5000     2.7014  
   12.52000m    2.5000     2.6994  
   12.53000m    2.5000     2.6974  
   12.54000m    2.5000     2.6955  
   12.55000m    2.5000     2.6935  
   12.56000m    2.5000     2.6915  
   12.57000m    2.5000     2.6895  
   12.58000m    2.5000     2.6876  
   12.59000m    2.5000     2.6856  
   12.60000m    2.5000     2.6836  
   12.61000m    2.5000     2.6816  
   12.62000m    2.5000     2.6797  
   12.63000m    2.5000     2.6777  
   12.64000m    2.5000     2.6757  
   12.65000m    2.5000     2.6737  
   12.66000m    2.5000     2.6718  
   12.67000m    2.5000     2.6698  
   12.68000m    2.5000     2.6678  
   12.69000m    2.5000     2.6658  
   12.70000m    2.5000     2.6639  
   12.71000m    2.5000     2.6619  
   12.72000m    2.5000     2.6599  
   12.73000m    2.5000     2.6579  
   12.74000m    2.5000     2.6559  
   12.75000m    2.5000     2.6540  
   12.76000m    2.5000     2.6520  
   12.77000m    2.5000     2.6500  
   12.78000m    2.5000     2.6480  
   12.79000m    2.5000     2.6461  
   12.80000m    2.5000     2.6441  
   12.81000m    2.5000     2.6421  
   12.82000m    2.5000     2.6405  
   12.83000m    2.5000     2.6395  
   12.84000m    2.5000     2.6384  
   12.85000m    2.5000     2.6373  
   12.86000m    2.5000     2.6363  
   12.87000m    2.5000     2.6352  
   12.88000m    2.5000     2.6341  
   12.89000m    2.5000     2.6331  
   12.90000m    2.5000     2.6320  
   12.91000m    2.5000     2.6309  
   12.92000m    2.5000     2.6299  
   12.93000m    2.5000     2.6288  
   12.94000m    2.5000     2.6277  
   12.95000m    2.5000     2.6267  
   12.96000m    2.5000     2.6256  
   12.97000m    2.5000     2.6245  
   12.98000m    2.5000     2.6235  
   12.99000m    2.5000     2.6224  
   13.00000m    2.5000     2.6213  
   13.01000m    2.5000     2.6203  
   13.02000m    2.5000     2.6192  
   13.03000m    2.5000     2.6181  
   13.04000m    2.5000     2.6171  
   13.05000m    2.5000     2.6160  
   13.06000m    2.5000     2.6149  
   13.07000m    2.5000     2.6139  
   13.08000m    2.5000     2.6128  
   13.09000m    2.5000     2.6117  
   13.10000m    2.5000     2.6107  
   13.11000m    2.5000     2.6096  
   13.12000m    2.5000     2.6085  
   13.13000m    2.5000     2.6075  
   13.14000m    2.5000     2.6064  
   13.15000m    2.5000     2.6053  
   13.16000m    2.5000     2.6043  
   13.17000m    2.5000     2.6032  
   13.18000m    2.5000     2.6021  
   13.19000m    2.5000     2.6011  
   13.20000m    2.5000     2.6000  
   13.21000m    2.5000     2.5989  
   13.22000m    2.5000     2.5979  
   13.23000m    2.5000     2.5968  
   13.24000m    2.5000     2.5957  
   13.25000m    2.5000     2.5947  
   13.26000m    2.5000     2.5936  
   13.27000m    2.5000     2.5925  
   13.28000m    2.5000     2.5915  
   13.29000m    2.5000     2.5904  
   13.30000m    2.5000     2.5893  
   13.31000m    2.5000     2.5883  
   13.32000m    2.5000     2.5872  
   13.33000m    2.5000     2.5861  
   13.34000m    2.5000     2.5851  
   13.35000m    2.5000     2.5840  
   13.36000m    2.5000     2.5829  
   13.37000m    2.5000     2.5819  
   13.38000m    2.5000     2.5808  
   13.39000m    2.5000     2.5797  
   13.40000m    2.5000     2.5787  
   13.41000m    2.5000     2.5776  
   13.42000m    2.5000     2.5765  
   13.43000m    2.5000     2.5755  
   13.44000m    2.5000     2.5744  
   13.45000m    2.5000     2.5733  
   13.46000m    2.5000     2.5723  
   13.47000m    2.5000     2.5718  
   13.48000m    2.5000     2.5713  
   13.49000m    2.5000     2.5707  
   13.50000m    2.5000     2.5702  
   13.51000m    2.5000     2.5697  
   13.52000m    2.5000     2.5692  
   13.53000m    2.5000     2.5686  
   13.54000m    2.5000     2.5681  
   13.55000m    2.5000     2.5676  
   13.56000m    2.5000     2.5670  
   13.57000m    2.5000     2.5665  
   13.58000m    2.5000     2.5660  
   13.59000m    2.5000     2.5655  
   13.60000m    2.5000     2.5649  
   13.61000m    2.5000     2.5644  
   13.62000m    2.5000     2.5639  
   13.63000m    2.5000     2.5634  
   13.64000m    2.5000     2.5628  
   13.65000m    2.5000     2.5623  
   13.66000m    2.5000     2.5618  
   13.67000m    2.5000     2.5612  
   13.68000m    2.5000     2.5607  
   13.69000m    2.5000     2.5602  
   13.70000m    2.5000     2.5597  
   13.71000m    2.5000     2.5591  
   13.72000m    2.5000     2.5586  
   13.73000m    2.5000     2.5581  
   13.74000m    2.5000     2.5576  
   13.75000m    2.5000     2.5570  
   13.76000m    2.5000     2.5565  
   13.77000m    2.5000     2.5560  
   13.78000m    2.5000     2.5554  
   13.79000m    2.5000     2.5549  
   13.80000m    2.5000     2.5544  
   13.81000m    2.5000     2.5539  
   13.82000m    2.5000     2.5533  
   13.83000m    2.5000     2.5528  
   13.84000m    2.5000     2.5523  
   13.85000m    2.5000     2.5518  
   13.86000m    2.5000     2.5512  
   13.87000m    2.5000     2.5507  
   13.88000m    2.5000     2.5502  
   13.89000m    2.5000     2.5497  
   13.90000m    2.5000     2.5491  
   13.91000m    2.5000     2.5486  
   13.92000m    2.5000     2.5481  
   13.93000m    2.5000     2.5475  
   13.94000m    2.5000     2.5470  
   13.95000m    2.5000     2.5465  
   13.96000m    2.5000     2.5460  
   13.97000m    2.5000     2.5454  
   13.98000m    2.5000     2.5449  
   13.99000m    2.5000     2.5444  
   14.00000m    2.5000     2.5439  
   14.01000m    2.5000     2.5433  
   14.02000m    2.5000     2.5428  
   14.03000m    2.5000     2.5423  
   14.04000m    2.5000     2.5417  
   14.05000m    2.5000     2.5412  
   14.06000m    2.5000     2.5407  
   14.07000m    2.5000     2.5402  
   14.08000m    2.5000     2.5396  
   14.09000m    2.5000     2.5391  
   14.10000m    2.5000     2.5386  
   14.11000m    2.5000     2.5381  
   14.12000m    2.5000     2.5375  
   14.13000m    2.5000     2.5370  
   14.14000m    2.5000     2.5365  
   14.15000m    2.5000     2.5359  
   14.16000m    2.5000     2.5354  
   14.17000m    2.5000     2.5349  
   14.18000m    2.5000     2.5344  
   14.19000m    2.5000     2.5338  
   14.20000m    2.5000     2.5333  
   14.21000m    2.5000     2.5329  
   14.22000m    2.5000     2.5327  
   14.23000m    2.5000     2.5324  
   14.24000m    2.5000     2.5322  
   14.25000m    2.5000     2.5320  
   14.26000m    2.5000     2.5317  
   14.27000m    2.5000     2.5315  
   14.28000m    2.5000     2.5313  
   14.29000m    2.5000     2.5310  
   14.30000m    2.5000     2.5308  
   14.31000m    2.5000     2.5306  
   14.32000m    2.5000     2.5303  
   14.33000m    2.5000     2.5301  
   14.34000m    2.5000     2.5298  
   14.35000m    2.5000     2.5296  
   14.36000m    2.5000     2.5294  
   14.37000m    2.5000     2.5291  
   14.38000m    2.5000     2.5289  
   14.39000m    2.5000     2.5287  
   14.40000m    2.5000     2.5284  
   14.41000m    2.5000     2.5282  
   14.42000m    2.5000     2.5280  
   14.43000m    2.5000     2.5277  
   14.44000m    2.5000     2.5275  
   14.45000m    2.5000     2.5272  
   14.46000m    2.5000     2.5270  
   14.47000m    2.5000     2.5268  
   14.48000m    2.5000     2.5265  
   14.49000m    2.5000     2.5263  
   14.50000m    2.5000     2.5261  
   14.51000m    2.5000     2.5258  
   14.52000m    2.5000     2.5256  
   14.53000m    2.5000     2.5254  
   14.54000m    2.5000     2.5251  
   14.55000m    2.5000     2.5249  
   14.56000m    2.5000     2.5246  
   14.57000m    2.5000     2.5244  
   14.58000m    2.5000     2.5242  
   14.59000m    2.5000     2.5239  
   14.60000m    2.5000     2.5237  
   14.61000m    2.5000     2.5235  
   14.62000m    2.5000     2.5232  
   14.63000m    2.5000     2.5230  
   14.64000m    2.5000     2.5228  
   14.65000m    2.5000     2.5225  
   14.66000m    2.5000     2.5223  
   14.67000m    2.5000     2.5220  
   14.68000m    2.5000     2.5218  
   14.69000m    2.5000     2.5216  
   14.70000m    2.5000     2.5213  
   14.71000m    2.5000     2.5211  
   14.72000m    2.5000     2.5209  
   14.73000m    2.5000     2.5206  
   14.74000m    2.5000     2.5204  
   14.75000m    2.5000     2.5202  
   14.76000m    2.5000     2.5199  
   14.77000m    2.5000     2.5197  
   14.78000m    2.5000     2.5194  
   14.79000m    2.5000     2.5192  
   14.80000m    2.5000     2.5190  
   14.81000m    2.5000     2.5187  
   14.82000m    2.5000     2.5185  
   14.83000m    2.5000     2.5183  
   14.84000m    2.5000     2.5180  
   14.85000m    2.5000     2.5178  
   14.86000m    2.5000     2.5176  
   14.87000m    2.5000     2.5173  
   14.88000m    2.5000     2.5171  
   14.89000m    2.5000     2.5168  
   14.90000m    2.5000     2.5166  
   14.91000m    2.5000     2.5164  
   14.92000m    2.5000     2.5161  
   14.93000m    2.5000     2.5159  
   14.94000m    2.5000     2.5157  
   14.95000m    2.5000     2.5154  
   14.96000m    2.5000     2.5152  
   14.97000m    2.5000     2.5150  
   14.98000m    2.5000     2.5147  
   14.99000m    2.5000     2.5145  
   15.00000m    2.5000     2.5142  
y

          ***** job concluded
 ******  
 * a simple rc circuit: rcexample.sp * note that the first line is always ignored

 ****** job statistics summary tnom=  25.000 temp=  25.000 ******
  
  
 ******  Machine Information  ******
 CPU:
 model name	: Intel(R) Xeon(R) CPU E5-2699 v3 @ 2.30GHz
 cpu MHz	: 2299.998
  
 OS:
 Linux version 3.10.0-693.2.2.el7.x86_64 (builder@kbuilder.dev.centos.org) (gcc version 4.8.5 20150623 (Red Hat 4.8.5-16) (GCC) ) #1 SMP Tue Sep 12 22:26:13 UTC 2017


  ******  HSPICE Threads Information  ******

  Command Line Threads Count :     1
  Available CPU Count        :     8
  Actual Threads Count       :     1


  ******  Circuit Statistics  ******
  # nodes       =       3 # elements   =       3
  # resistors   =       1 # capacitors =       1 # inductors   =       0
  # mutual_inds =       0 # vccs       =       0 # vcvs        =       0
  # cccs        =       0 # ccvs       =       0 # volt_srcs   =       1
  # curr_srcs   =       0 # diodes     =       0 # bjts        =       0
  # jfets       =       0 # mosfets    =       0 # U elements  =       0
  # T elements  =       0 # W elements =       0 # B elements  =       0
  # S elements  =       0 # P elements =       0 # va device   =       0
  # vector_srcs =       0 # N elements =       0


  ******  Runtime Statistics (seconds)  ******

  analysis           time    # points   tot. iter  conv.iter
  op point           0.00           1           1
  transient          0.00        1501         106          53 rev=         3
  readin             0.04
  errchk             0.01
  setup              0.00
  output             0.01


           peak memory used        255.13 megabytes
           total cpu time            0.08 seconds
           total elapsed time        0.21 seconds
           job started at     20:43:16 02/02/2019
           job ended   at     20:43:16 02/02/2019


 lic: Release hspice token(s) 
 lic: total license checkout elapse time:        0.14(s)
